* NGSPICE file created from Output_OA.ext - technology: sky130A

.subckt sky130_fd_pr__res_high_po_0p69_FJD3D2 a_n199_n4646# a_n69_4084# a_n69_n4516#
X0 a_n69_4084# a_n69_n4516# a_n199_n4646# sky130_fd_pr__res_high_po_0p69 l=41
.ends

.subckt sky130_fd_pr__nfet_05v0_nvt_FEJX3A a_952_n991# a_n1352_n573# a_200_318# a_318_736#
+ a_n952_n518# a_n258_n100# a_n952_736# a_776_n100# a_n834_318# a_n776_n991# a_n258_n936#
+ a_n258_736# a_952_681# a_776_n936# a_894_736# a_n834_n518# a_n200_n573# a_318_n100#
+ a_776_318# a_200_n518# a_n1352_681# a_376_n991# a_1352_n518# a_318_n936# a_n376_n518#
+ a_894_n518# a_318_318# a_n1544_n1158# a_952_n573# a_n1352_n155# a_n952_318# a_n1410_n100#
+ a_n1410_736# a_n376_736# a_n200_681# a_n1410_n936# a_n258_n518# a_n776_n573# a_n258_318#
+ a_776_n518# a_894_318# a_952_263# a_n200_n155# a_1352_736# a_376_681# a_n1352_263#
+ a_318_n518# a_376_n573# a_n776_681# a_n952_n100# a_952_n155# a_200_736# a_n952_n936#
+ a_n1352_n991# a_n1410_318# a_n376_318# a_n200_263# a_n776_n155# a_n834_736# a_n1410_n518#
+ a_n834_n100# a_200_n100# a_1352_318# a_n200_n991# a_1352_n100# a_376_263# a_n834_n936#
+ a_n376_n100# a_776_736# a_1352_n936# a_200_n936# a_894_n100# a_376_n155# a_n376_n936#
+ a_n776_263# a_894_n936#
X0 a_1352_n518# a_952_n573# a_894_n518# a_n1544_n1158# sky130_fd_pr__nfet_05v0_nvt ad=0.29 pd=2.58 as=0.29 ps=2.58 w=1 l=2
X1 a_n376_n518# a_n776_n573# a_n834_n518# a_n1544_n1158# sky130_fd_pr__nfet_05v0_nvt ad=0.29 pd=2.58 as=0.29 ps=2.58 w=1 l=2
X2 a_n952_n100# a_n1352_n155# a_n1410_n100# a_n1544_n1158# sky130_fd_pr__nfet_05v0_nvt ad=0.29 pd=2.58 as=0.29 ps=2.58 w=1 l=2
X3 a_n376_n100# a_n776_n155# a_n834_n100# a_n1544_n1158# sky130_fd_pr__nfet_05v0_nvt ad=0.29 pd=2.58 as=0.29 ps=2.58 w=1 l=2
X4 a_200_n100# a_n200_n155# a_n258_n100# a_n1544_n1158# sky130_fd_pr__nfet_05v0_nvt ad=0.29 pd=2.58 as=0.29 ps=2.58 w=1 l=2
X5 a_776_736# a_376_681# a_318_736# a_n1544_n1158# sky130_fd_pr__nfet_05v0_nvt ad=0.29 pd=2.58 as=0.29 ps=2.58 w=1 l=2
X6 a_1352_736# a_952_681# a_894_736# a_n1544_n1158# sky130_fd_pr__nfet_05v0_nvt ad=0.29 pd=2.58 as=0.29 ps=2.58 w=1 l=2
X7 a_n952_n518# a_n1352_n573# a_n1410_n518# a_n1544_n1158# sky130_fd_pr__nfet_05v0_nvt ad=0.29 pd=2.58 as=0.29 ps=2.58 w=1 l=2
X8 a_n952_318# a_n1352_263# a_n1410_318# a_n1544_n1158# sky130_fd_pr__nfet_05v0_nvt ad=0.29 pd=2.58 as=0.29 ps=2.58 w=1 l=2
X9 a_776_n936# a_376_n991# a_318_n936# a_n1544_n1158# sky130_fd_pr__nfet_05v0_nvt ad=0.29 pd=2.58 as=0.29 ps=2.58 w=1 l=2
X10 a_200_n936# a_n200_n991# a_n258_n936# a_n1544_n1158# sky130_fd_pr__nfet_05v0_nvt ad=0.29 pd=2.58 as=0.29 ps=2.58 w=1 l=2
X11 a_n376_318# a_n776_263# a_n834_318# a_n1544_n1158# sky130_fd_pr__nfet_05v0_nvt ad=0.29 pd=2.58 as=0.29 ps=2.58 w=1 l=2
X12 a_200_318# a_n200_263# a_n258_318# a_n1544_n1158# sky130_fd_pr__nfet_05v0_nvt ad=0.29 pd=2.58 as=0.29 ps=2.58 w=1 l=2
X13 a_776_n100# a_376_n155# a_318_n100# a_n1544_n1158# sky130_fd_pr__nfet_05v0_nvt ad=0.29 pd=2.58 as=0.29 ps=2.58 w=1 l=2
X14 a_1352_n100# a_952_n155# a_894_n100# a_n1544_n1158# sky130_fd_pr__nfet_05v0_nvt ad=0.29 pd=2.58 as=0.29 ps=2.58 w=1 l=2
X15 a_n376_n936# a_n776_n991# a_n834_n936# a_n1544_n1158# sky130_fd_pr__nfet_05v0_nvt ad=0.29 pd=2.58 as=0.29 ps=2.58 w=1 l=2
X16 a_1352_n936# a_952_n991# a_894_n936# a_n1544_n1158# sky130_fd_pr__nfet_05v0_nvt ad=0.29 pd=2.58 as=0.29 ps=2.58 w=1 l=2
X17 a_776_318# a_376_263# a_318_318# a_n1544_n1158# sky130_fd_pr__nfet_05v0_nvt ad=0.29 pd=2.58 as=0.29 ps=2.58 w=1 l=2
X18 a_1352_318# a_952_263# a_894_318# a_n1544_n1158# sky130_fd_pr__nfet_05v0_nvt ad=0.29 pd=2.58 as=0.29 ps=2.58 w=1 l=2
X19 a_n952_n936# a_n1352_n991# a_n1410_n936# a_n1544_n1158# sky130_fd_pr__nfet_05v0_nvt ad=0.29 pd=2.58 as=0.29 ps=2.58 w=1 l=2
X20 a_n952_736# a_n1352_681# a_n1410_736# a_n1544_n1158# sky130_fd_pr__nfet_05v0_nvt ad=0.29 pd=2.58 as=0.29 ps=2.58 w=1 l=2
X21 a_200_736# a_n200_681# a_n258_736# a_n1544_n1158# sky130_fd_pr__nfet_05v0_nvt ad=0.29 pd=2.58 as=0.29 ps=2.58 w=1 l=2
X22 a_776_n518# a_376_n573# a_318_n518# a_n1544_n1158# sky130_fd_pr__nfet_05v0_nvt ad=0.29 pd=2.58 as=0.29 ps=2.58 w=1 l=2
X23 a_n376_736# a_n776_681# a_n834_736# a_n1544_n1158# sky130_fd_pr__nfet_05v0_nvt ad=0.29 pd=2.58 as=0.29 ps=2.58 w=1 l=2
X24 a_200_n518# a_n200_n573# a_n258_n518# a_n1544_n1158# sky130_fd_pr__nfet_05v0_nvt ad=0.29 pd=2.58 as=0.29 ps=2.58 w=1 l=2
.ends

.subckt sky130_fd_pr__nfet_g5v0d10v5_3WU84W a_n3899_n1610# a_n29_n2720# a_3067_1720#
+ a_4357_n2720# a_1261_n500# a_n287_610# a_n4673_610# a_487_n1610# a_1777_1720# a_n2609_1720#
+ a_4873_1720# a_n803_n2720# a_n3641_610# a_n5705_1720# a_n5389_n2808# a_229_n2720#
+ a_3383_n2808# a_n5189_610# a_n287_n1610# a_n3641_n2720# a_n4157_610# a_2867_n2808#
+ a_3841_n2720# a_n2351_1720# a_n1319_n500# a_5389_1720# a_3583_n500# a_n3125_610#
+ a_5447_n2808# a_n4415_n500# a_n5705_n2720# a_n2609_610# a_n4873_n2808# a_3067_n2720#
+ a_n287_n500# a_229_1720# a_n5189_n1610# a_n1061_n500# a_4099_n500# a_3583_610# a_n1577_1720#
+ a_5389_n1610# a_n4099_n2808# a_n4673_1720# a_4931_n2808# a_2093_n2808# a_2551_610#
+ a_2035_1720# a_n2351_n2720# a_4099_610# a_5131_1720# a_1577_n2808# a_2551_n2720#
+ a_803_n2808# a_n745_n2808# a_n1003_n2808# a_n4673_n1610# a_n1835_n2720# a_2809_n500#
+ a_3067_610# a_3841_1720# a_4157_n2808# a_5131_n2720# a_745_n500# a_n5189_1720# a_4873_n1610#
+ a_n4415_n2720# a_n3383_n500# a_2035_610# a_n545_1720# a_n3899_1720# a_n3583_n2808#
+ a_4615_n2720# a_1519_610# a_1003_610# a_745_n1610# a_4357_1720# a_2551_n500# a_4099_n1610#
+ a_3641_n2808# a_n5647_n2808# a_n1061_n2720# a_n545_n1610# a_1003_n1610# a_1261_n2720#
+ a_n3383_n1610# a_3067_n500# a_1777_n500# a_n3899_610# a_n3641_1720# a_3583_n1610#
+ a_n2609_n500# a_n3383_610# a_1003_1720# a_n2293_n2808# a_4873_n500# a_n2867_n1610#
+ a_n3125_n2720# a_n5705_n500# a_n2351_610# a_n2867_610# a_3325_n2720# a_n5447_n1610#
+ a_n2609_n2720# a_n1835_610# a_n1777_n2808# a_5647_n1610# a_n4157_1720# a_n4357_n2808#
+ a_2809_n2720# a_n2351_n500# a_2351_n2808# a_5389_n500# a_n2867_1720# a_n1319_610#
+ a_3325_1720# a_1835_n2808# a_n803_610# a_n4931_n1610# a_n2093_n1610# a_229_n500#
+ a_4415_n2808# a_2293_n1610# a_n3841_n2808# a_n1577_n1610# a_n1577_n500# a_n5705_610#
+ a_n4673_n500# a_2293_610# a_2035_n2720# a_n229_n2808# a_n4157_n1610# a_n29_n1610#
+ a_1777_n1610# a_n1319_n2720# a_2035_n500# a_1777_610# a_1261_610# a_n29_1720# a_5131_n500#
+ a_4357_n1610# a_1519_n2720# a_5647_1720# a_487_1720# a_n3067_n2808# a_3841_n500#
+ a_1061_n2808# a_n3899_n2720# a_n803_n1610# a_n5189_n500# a_229_n1610# a_n545_n500#
+ a_487_n2720# a_n3899_n500# a_n3641_n1610# a_2293_1720# a_n3125_1720# a_745_610#
+ a_3125_n2808# a_4357_n500# a_n1835_1720# a_3841_n1610# a_n4931_1720# a_n2551_n2808#
+ a_n287_n2720# a_5647_610# a_5131_610# a_2609_n2808# a_4615_610# a_n5131_n2808# a_n5705_n1610#
+ a_229_610# a_3067_n1610# a_n4615_n2808# a_n5447_1720# a_n3641_n500# a_n803_1720#
+ a_n5189_n2720# a_1003_n500# a_n2093_610# a_1519_1720# a_n2351_n1610# a_5389_n2720#
+ a_n1577_610# a_4615_1720# a_n1061_610# a_n2093_1720# a_2551_n1610# a_n4157_n500#
+ a_n1261_n2808# a_n1835_n1610# a_1319_n2808# a_5131_n1610# a_n2867_n500# a_n4415_n1610#
+ a_1261_1720# a_n4673_n2720# a_n545_610# a_3325_n500# a_n4931_610# a_3899_n2808#
+ a_4615_n1610# a_4873_n2720# a_287_n2808# a_n3325_n2808# a_n5447_610# a_n2809_n2808#
+ a_745_n2720# a_n1061_n1610# a_4099_n2720# a_n4415_610# a_n1319_1720# a_n29_n500#
+ a_3583_1720# a_n4415_1720# a_1261_n1610# a_5647_n500# a_n545_n2720# a_487_n500#
+ a_1003_n2720# a_n287_1720# a_n3125_n1610# a_n3383_n2720# a_4873_610# a_n1061_1720#
+ a_4099_1720# a_3325_n1610# a_3583_n2720# a_2293_n500# a_n3125_n500# a_487_610# a_n2035_n2808#
+ a_n2609_n1610# a_n2867_n2720# a_3841_610# a_5189_n2808# a_n1835_n500# a_2809_n1610#
+ a_n4931_n500# a_5389_610# a_n1519_n2808# a_n5447_n2720# a_4357_610# a_5647_n2720#
+ a_2809_1720# a_n29_610# a_3325_610# a_745_1720# a_n3383_1720# a_n5447_n500# a_2809_610#
+ a_4673_n2808# a_n5839_n2942# a_n4931_n2720# a_n2093_n2720# a_n803_n500# a_2551_1720#
+ a_2035_n1610# a_1519_n500# a_545_n2808# a_4615_n500# a_n1319_n1610# a_2293_n2720#
+ a_29_n2808# a_n487_n2808# a_n1577_n2720# a_n2093_n500# a_1519_n1610# a_n4157_n2720#
+ a_1777_n2720#
X0 a_5389_n2720# a_5189_n2808# a_5131_n2720# a_n5839_n2942# sky130_fd_pr__nfet_g5v0d10v5 ad=0.725 pd=5.29 as=0.725 ps=5.29 w=5 l=1
X1 a_4357_n1610# a_4157_n2808# a_4099_n1610# a_n5839_n2942# sky130_fd_pr__nfet_g5v0d10v5 ad=0.725 pd=5.29 as=0.725 ps=5.29 w=5 l=1
X2 a_n1061_1720# a_n1261_n2808# a_n1319_1720# a_n5839_n2942# sky130_fd_pr__nfet_g5v0d10v5 ad=0.725 pd=5.29 as=0.725 ps=5.29 w=5 l=1
X3 a_2551_n2720# a_2351_n2808# a_2293_n2720# a_n5839_n2942# sky130_fd_pr__nfet_g5v0d10v5 ad=0.725 pd=5.29 as=0.725 ps=5.29 w=5 l=1
X4 a_n803_610# a_n1003_n2808# a_n1061_610# a_n5839_n2942# sky130_fd_pr__nfet_g5v0d10v5 ad=0.725 pd=5.29 as=0.725 ps=5.29 w=5 l=1
X5 a_1003_n500# a_803_n2808# a_745_n500# a_n5839_n2942# sky130_fd_pr__nfet_g5v0d10v5 ad=0.725 pd=5.29 as=0.725 ps=5.29 w=5 l=1
X6 a_n1835_n2720# a_n2035_n2808# a_n2093_n2720# a_n5839_n2942# sky130_fd_pr__nfet_g5v0d10v5 ad=0.725 pd=5.29 as=0.725 ps=5.29 w=5 l=1
X7 a_n803_n1610# a_n1003_n2808# a_n1061_n1610# a_n5839_n2942# sky130_fd_pr__nfet_g5v0d10v5 ad=0.725 pd=5.29 as=0.725 ps=5.29 w=5 l=1
X8 a_745_610# a_545_n2808# a_487_610# a_n5839_n2942# sky130_fd_pr__nfet_g5v0d10v5 ad=0.725 pd=5.29 as=0.725 ps=5.29 w=5 l=1
X9 a_1003_1720# a_803_n2808# a_745_1720# a_n5839_n2942# sky130_fd_pr__nfet_g5v0d10v5 ad=0.725 pd=5.29 as=0.725 ps=5.29 w=5 l=1
X10 a_5389_610# a_5189_n2808# a_5131_610# a_n5839_n2942# sky130_fd_pr__nfet_g5v0d10v5 ad=0.725 pd=5.29 as=0.725 ps=5.29 w=5 l=1
X11 a_745_n500# a_545_n2808# a_487_n500# a_n5839_n2942# sky130_fd_pr__nfet_g5v0d10v5 ad=0.725 pd=5.29 as=0.725 ps=5.29 w=5 l=1
X12 a_n29_610# a_n229_n2808# a_n287_610# a_n5839_n2942# sky130_fd_pr__nfet_g5v0d10v5 ad=0.725 pd=5.29 as=0.725 ps=5.29 w=5 l=1
X13 a_n3899_610# a_n4099_n2808# a_n4157_610# a_n5839_n2942# sky130_fd_pr__nfet_g5v0d10v5 ad=0.725 pd=5.29 as=0.725 ps=5.29 w=5 l=1
X14 a_1261_n2720# a_1061_n2808# a_1003_n2720# a_n5839_n2942# sky130_fd_pr__nfet_g5v0d10v5 ad=0.725 pd=5.29 as=0.725 ps=5.29 w=5 l=1
X15 a_745_1720# a_545_n2808# a_487_1720# a_n5839_n2942# sky130_fd_pr__nfet_g5v0d10v5 ad=0.725 pd=5.29 as=0.725 ps=5.29 w=5 l=1
X16 a_487_n500# a_287_n2808# a_229_n500# a_n5839_n2942# sky130_fd_pr__nfet_g5v0d10v5 ad=0.725 pd=5.29 as=0.725 ps=5.29 w=5 l=1
X17 a_n4931_n2720# a_n5131_n2808# a_n5189_n2720# a_n5839_n2942# sky130_fd_pr__nfet_g5v0d10v5 ad=0.725 pd=5.29 as=0.725 ps=5.29 w=5 l=1
X18 a_487_1720# a_287_n2808# a_229_1720# a_n5839_n2942# sky130_fd_pr__nfet_g5v0d10v5 ad=0.725 pd=5.29 as=0.725 ps=5.29 w=5 l=1
X19 a_n4673_610# a_n4873_n2808# a_n4931_610# a_n5839_n2942# sky130_fd_pr__nfet_g5v0d10v5 ad=0.725 pd=5.29 as=0.725 ps=5.29 w=5 l=1
X20 a_229_n2720# a_29_n2808# a_n29_n2720# a_n5839_n2942# sky130_fd_pr__nfet_g5v0d10v5 ad=0.725 pd=5.29 as=0.725 ps=5.29 w=5 l=1
X21 a_n545_n2720# a_n745_n2808# a_n803_n2720# a_n5839_n2942# sky130_fd_pr__nfet_g5v0d10v5 ad=0.725 pd=5.29 as=0.725 ps=5.29 w=5 l=1
X22 a_229_610# a_29_n2808# a_n29_610# a_n5839_n2942# sky130_fd_pr__nfet_g5v0d10v5 ad=0.725 pd=5.29 as=0.725 ps=5.29 w=5 l=1
X23 a_2035_n500# a_1835_n2808# a_1777_n500# a_n5839_n2942# sky130_fd_pr__nfet_g5v0d10v5 ad=0.725 pd=5.29 as=0.725 ps=5.29 w=5 l=1
X24 a_4099_n500# a_3899_n2808# a_3841_n500# a_n5839_n2942# sky130_fd_pr__nfet_g5v0d10v5 ad=0.725 pd=5.29 as=0.725 ps=5.29 w=5 l=1
X25 a_4099_n2720# a_3899_n2808# a_3841_n2720# a_n5839_n2942# sky130_fd_pr__nfet_g5v0d10v5 ad=0.725 pd=5.29 as=0.725 ps=5.29 w=5 l=1
X26 a_3067_n1610# a_2867_n2808# a_2809_n1610# a_n5839_n2942# sky130_fd_pr__nfet_g5v0d10v5 ad=0.725 pd=5.29 as=0.725 ps=5.29 w=5 l=1
X27 a_2035_1720# a_1835_n2808# a_1777_1720# a_n5839_n2942# sky130_fd_pr__nfet_g5v0d10v5 ad=0.725 pd=5.29 as=0.725 ps=5.29 w=5 l=1
X28 a_4099_1720# a_3899_n2808# a_3841_1720# a_n5839_n2942# sky130_fd_pr__nfet_g5v0d10v5 ad=0.725 pd=5.29 as=0.725 ps=5.29 w=5 l=1
X29 a_n5189_610# a_n5389_n2808# a_n5447_610# a_n5839_n2942# sky130_fd_pr__nfet_g5v0d10v5 ad=0.725 pd=5.29 as=0.725 ps=5.29 w=5 l=1
X30 a_1777_n500# a_1577_n2808# a_1519_n500# a_n5839_n2942# sky130_fd_pr__nfet_g5v0d10v5 ad=0.725 pd=5.29 as=0.725 ps=5.29 w=5 l=1
X31 a_4099_610# a_3899_n2808# a_3841_610# a_n5839_n2942# sky130_fd_pr__nfet_g5v0d10v5 ad=0.725 pd=5.29 as=0.725 ps=5.29 w=5 l=1
X32 a_n2609_n500# a_n2809_n2808# a_n2867_n500# a_n5839_n2942# sky130_fd_pr__nfet_g5v0d10v5 ad=0.725 pd=5.29 as=0.725 ps=5.29 w=5 l=1
X33 a_3841_n500# a_3641_n2808# a_3583_n500# a_n5839_n2942# sky130_fd_pr__nfet_g5v0d10v5 ad=0.725 pd=5.29 as=0.725 ps=5.29 w=5 l=1
X34 a_1777_1720# a_1577_n2808# a_1519_1720# a_n5839_n2942# sky130_fd_pr__nfet_g5v0d10v5 ad=0.725 pd=5.29 as=0.725 ps=5.29 w=5 l=1
X35 a_n2609_1720# a_n2809_n2808# a_n2867_1720# a_n5839_n2942# sky130_fd_pr__nfet_g5v0d10v5 ad=0.725 pd=5.29 as=0.725 ps=5.29 w=5 l=1
X36 a_3841_1720# a_3641_n2808# a_3583_1720# a_n5839_n2942# sky130_fd_pr__nfet_g5v0d10v5 ad=0.725 pd=5.29 as=0.725 ps=5.29 w=5 l=1
X37 a_1519_610# a_1319_n2808# a_1261_610# a_n5839_n2942# sky130_fd_pr__nfet_g5v0d10v5 ad=0.725 pd=5.29 as=0.725 ps=5.29 w=5 l=1
X38 a_3583_n500# a_3383_n2808# a_3325_n500# a_n5839_n2942# sky130_fd_pr__nfet_g5v0d10v5 ad=0.725 pd=5.29 as=0.725 ps=5.29 w=5 l=1
X39 a_2809_n1610# a_2609_n2808# a_2551_n1610# a_n5839_n2942# sky130_fd_pr__nfet_g5v0d10v5 ad=0.725 pd=5.29 as=0.725 ps=5.29 w=5 l=1
X40 a_n4415_n500# a_n4615_n2808# a_n4673_n500# a_n5839_n2942# sky130_fd_pr__nfet_g5v0d10v5 ad=0.725 pd=5.29 as=0.725 ps=5.29 w=5 l=1
X41 a_1261_n500# a_1061_n2808# a_1003_n500# a_n5839_n2942# sky130_fd_pr__nfet_g5v0d10v5 ad=0.725 pd=5.29 as=0.725 ps=5.29 w=5 l=1
X42 a_1777_n1610# a_1577_n2808# a_1519_n1610# a_n5839_n2942# sky130_fd_pr__nfet_g5v0d10v5 ad=0.725 pd=5.29 as=0.725 ps=5.29 w=5 l=1
X43 a_n5447_n1610# a_n5647_n2808# a_n5705_n1610# a_n5839_n2942# sky130_fd_pr__nfet_g5v0d10v5 ad=0.725 pd=5.29 as=1.45 ps=10.58 w=5 l=1
X44 a_3583_1720# a_3383_n2808# a_3325_1720# a_n5839_n2942# sky130_fd_pr__nfet_g5v0d10v5 ad=0.725 pd=5.29 as=0.725 ps=5.29 w=5 l=1
X45 a_n3641_n2720# a_n3841_n2808# a_n3899_n2720# a_n5839_n2942# sky130_fd_pr__nfet_g5v0d10v5 ad=0.725 pd=5.29 as=0.725 ps=5.29 w=5 l=1
X46 a_n4415_1720# a_n4615_n2808# a_n4673_1720# a_n5839_n2942# sky130_fd_pr__nfet_g5v0d10v5 ad=0.725 pd=5.29 as=0.725 ps=5.29 w=5 l=1
X47 a_n4157_n500# a_n4357_n2808# a_n4415_n500# a_n5839_n2942# sky130_fd_pr__nfet_g5v0d10v5 ad=0.725 pd=5.29 as=0.725 ps=5.29 w=5 l=1
X48 a_1261_1720# a_1061_n2808# a_1003_1720# a_n5839_n2942# sky130_fd_pr__nfet_g5v0d10v5 ad=0.725 pd=5.29 as=0.725 ps=5.29 w=5 l=1
X49 a_n3899_n500# a_n4099_n2808# a_n4157_n500# a_n5839_n2942# sky130_fd_pr__nfet_g5v0d10v5 ad=0.725 pd=5.29 as=0.725 ps=5.29 w=5 l=1
X50 a_n1835_n500# a_n2035_n2808# a_n2093_n500# a_n5839_n2942# sky130_fd_pr__nfet_g5v0d10v5 ad=0.725 pd=5.29 as=0.725 ps=5.29 w=5 l=1
X51 a_n4157_1720# a_n4357_n2808# a_n4415_1720# a_n5839_n2942# sky130_fd_pr__nfet_g5v0d10v5 ad=0.725 pd=5.29 as=0.725 ps=5.29 w=5 l=1
X52 a_4873_n1610# a_4673_n2808# a_4615_n1610# a_n5839_n2942# sky130_fd_pr__nfet_g5v0d10v5 ad=0.725 pd=5.29 as=0.725 ps=5.29 w=5 l=1
X53 a_1519_n1610# a_1319_n2808# a_1261_n1610# a_n5839_n2942# sky130_fd_pr__nfet_g5v0d10v5 ad=0.725 pd=5.29 as=0.725 ps=5.29 w=5 l=1
X54 a_487_610# a_287_n2808# a_229_610# a_n5839_n2942# sky130_fd_pr__nfet_g5v0d10v5 ad=0.725 pd=5.29 as=0.725 ps=5.29 w=5 l=1
X55 a_n3899_1720# a_n4099_n2808# a_n4157_1720# a_n5839_n2942# sky130_fd_pr__nfet_g5v0d10v5 ad=0.725 pd=5.29 as=0.725 ps=5.29 w=5 l=1
X56 a_n1835_1720# a_n2035_n2808# a_n2093_1720# a_n5839_n2942# sky130_fd_pr__nfet_g5v0d10v5 ad=0.725 pd=5.29 as=0.725 ps=5.29 w=5 l=1
X57 a_n5189_n2720# a_n5389_n2808# a_n5447_n2720# a_n5839_n2942# sky130_fd_pr__nfet_g5v0d10v5 ad=0.725 pd=5.29 as=0.725 ps=5.29 w=5 l=1
X58 a_n4157_n1610# a_n4357_n2808# a_n4415_n1610# a_n5839_n2942# sky130_fd_pr__nfet_g5v0d10v5 ad=0.725 pd=5.29 as=0.725 ps=5.29 w=5 l=1
X59 a_n2351_n2720# a_n2551_n2808# a_n2609_n2720# a_n5839_n2942# sky130_fd_pr__nfet_g5v0d10v5 ad=0.725 pd=5.29 as=0.725 ps=5.29 w=5 l=1
X60 a_1003_n2720# a_803_n2808# a_745_n2720# a_n5839_n2942# sky130_fd_pr__nfet_g5v0d10v5 ad=0.725 pd=5.29 as=0.725 ps=5.29 w=5 l=1
X61 a_5647_n2720# a_5447_n2808# a_5389_n2720# a_n5839_n2942# sky130_fd_pr__nfet_g5v0d10v5 ad=1.45 pd=10.58 as=0.725 ps=5.29 w=5 l=1
X62 a_4615_n1610# a_4415_n2808# a_4357_n1610# a_n5839_n2942# sky130_fd_pr__nfet_g5v0d10v5 ad=0.725 pd=5.29 as=0.725 ps=5.29 w=5 l=1
X63 a_3583_n1610# a_3383_n2808# a_3325_n1610# a_n5839_n2942# sky130_fd_pr__nfet_g5v0d10v5 ad=0.725 pd=5.29 as=0.725 ps=5.29 w=5 l=1
X64 a_n545_610# a_n745_n2808# a_n803_610# a_n5839_n2942# sky130_fd_pr__nfet_g5v0d10v5 ad=0.725 pd=5.29 as=0.725 ps=5.29 w=5 l=1
X65 a_2809_610# a_2609_n2808# a_2551_610# a_n5839_n2942# sky130_fd_pr__nfet_g5v0d10v5 ad=0.725 pd=5.29 as=0.725 ps=5.29 w=5 l=1
X66 a_n3899_n2720# a_n4099_n2808# a_n4157_n2720# a_n5839_n2942# sky130_fd_pr__nfet_g5v0d10v5 ad=0.725 pd=5.29 as=0.725 ps=5.29 w=5 l=1
X67 a_n2867_n1610# a_n3067_n2808# a_n3125_n1610# a_n5839_n2942# sky130_fd_pr__nfet_g5v0d10v5 ad=0.725 pd=5.29 as=0.725 ps=5.29 w=5 l=1
X68 a_n1319_610# a_n1519_n2808# a_n1577_610# a_n5839_n2942# sky130_fd_pr__nfet_g5v0d10v5 ad=0.725 pd=5.29 as=0.725 ps=5.29 w=5 l=1
X69 a_n1061_n2720# a_n1261_n2808# a_n1319_n2720# a_n5839_n2942# sky130_fd_pr__nfet_g5v0d10v5 ad=0.725 pd=5.29 as=0.725 ps=5.29 w=5 l=1
X70 a_4357_n2720# a_4157_n2808# a_4099_n2720# a_n5839_n2942# sky130_fd_pr__nfet_g5v0d10v5 ad=0.725 pd=5.29 as=0.725 ps=5.29 w=5 l=1
X71 a_487_n1610# a_287_n2808# a_229_n1610# a_n5839_n2942# sky130_fd_pr__nfet_g5v0d10v5 ad=0.725 pd=5.29 as=0.725 ps=5.29 w=5 l=1
X72 a_3325_610# a_3125_n2808# a_3067_610# a_n5839_n2942# sky130_fd_pr__nfet_g5v0d10v5 ad=0.725 pd=5.29 as=0.725 ps=5.29 w=5 l=1
X73 a_3325_n1610# a_3125_n2808# a_3067_n1610# a_n5839_n2942# sky130_fd_pr__nfet_g5v0d10v5 ad=0.725 pd=5.29 as=0.725 ps=5.29 w=5 l=1
X74 a_2293_n1610# a_2093_n2808# a_2035_n1610# a_n5839_n2942# sky130_fd_pr__nfet_g5v0d10v5 ad=0.725 pd=5.29 as=0.725 ps=5.29 w=5 l=1
X75 a_n1835_610# a_n2035_n2808# a_n2093_610# a_n5839_n2942# sky130_fd_pr__nfet_g5v0d10v5 ad=0.725 pd=5.29 as=0.725 ps=5.29 w=5 l=1
X76 a_n803_n2720# a_n1003_n2808# a_n1061_n2720# a_n5839_n2942# sky130_fd_pr__nfet_g5v0d10v5 ad=0.725 pd=5.29 as=0.725 ps=5.29 w=5 l=1
X77 a_1261_610# a_1061_n2808# a_1003_610# a_n5839_n2942# sky130_fd_pr__nfet_g5v0d10v5 ad=0.725 pd=5.29 as=0.725 ps=5.29 w=5 l=1
X78 a_2809_n500# a_2609_n2808# a_2551_n500# a_n5839_n2942# sky130_fd_pr__nfet_g5v0d10v5 ad=0.725 pd=5.29 as=0.725 ps=5.29 w=5 l=1
X79 a_n4673_n500# a_n4873_n2808# a_n4931_n500# a_n5839_n2942# sky130_fd_pr__nfet_g5v0d10v5 ad=0.725 pd=5.29 as=0.725 ps=5.29 w=5 l=1
X80 a_2809_1720# a_2609_n2808# a_2551_1720# a_n5839_n2942# sky130_fd_pr__nfet_g5v0d10v5 ad=0.725 pd=5.29 as=0.725 ps=5.29 w=5 l=1
X81 a_n2609_610# a_n2809_n2808# a_n2867_610# a_n5839_n2942# sky130_fd_pr__nfet_g5v0d10v5 ad=0.725 pd=5.29 as=0.725 ps=5.29 w=5 l=1
X82 a_n287_n1610# a_n487_n2808# a_n545_n1610# a_n5839_n2942# sky130_fd_pr__nfet_g5v0d10v5 ad=0.725 pd=5.29 as=0.725 ps=5.29 w=5 l=1
X83 a_4615_n500# a_4415_n2808# a_4357_n500# a_n5839_n2942# sky130_fd_pr__nfet_g5v0d10v5 ad=0.725 pd=5.29 as=0.725 ps=5.29 w=5 l=1
X84 a_n4673_1720# a_n4873_n2808# a_n4931_1720# a_n5839_n2942# sky130_fd_pr__nfet_g5v0d10v5 ad=0.725 pd=5.29 as=0.725 ps=5.29 w=5 l=1
X85 a_4615_610# a_4415_n2808# a_4357_610# a_n5839_n2942# sky130_fd_pr__nfet_g5v0d10v5 ad=0.725 pd=5.29 as=0.725 ps=5.29 w=5 l=1
X86 a_n2351_n500# a_n2551_n2808# a_n2609_n500# a_n5839_n2942# sky130_fd_pr__nfet_g5v0d10v5 ad=0.725 pd=5.29 as=0.725 ps=5.29 w=5 l=1
X87 a_4357_n500# a_4157_n2808# a_4099_n500# a_n5839_n2942# sky130_fd_pr__nfet_g5v0d10v5 ad=0.725 pd=5.29 as=0.725 ps=5.29 w=5 l=1
X88 a_4615_1720# a_4415_n2808# a_4357_1720# a_n5839_n2942# sky130_fd_pr__nfet_g5v0d10v5 ad=0.725 pd=5.29 as=0.725 ps=5.29 w=5 l=1
X89 a_n3125_610# a_n3325_n2808# a_n3383_610# a_n5839_n2942# sky130_fd_pr__nfet_g5v0d10v5 ad=0.725 pd=5.29 as=0.725 ps=5.29 w=5 l=1
X90 a_n2609_n1610# a_n2809_n2808# a_n2867_n1610# a_n5839_n2942# sky130_fd_pr__nfet_g5v0d10v5 ad=0.725 pd=5.29 as=0.725 ps=5.29 w=5 l=1
X91 a_n2351_1720# a_n2551_n2808# a_n2609_1720# a_n5839_n2942# sky130_fd_pr__nfet_g5v0d10v5 ad=0.725 pd=5.29 as=0.725 ps=5.29 w=5 l=1
X92 a_2035_610# a_1835_n2808# a_1777_610# a_n5839_n2942# sky130_fd_pr__nfet_g5v0d10v5 ad=0.725 pd=5.29 as=0.725 ps=5.29 w=5 l=1
X93 a_n2093_n500# a_n2293_n2808# a_n2351_n500# a_n5839_n2942# sky130_fd_pr__nfet_g5v0d10v5 ad=0.725 pd=5.29 as=0.725 ps=5.29 w=5 l=1
X94 a_4357_1720# a_4157_n2808# a_4099_1720# a_n5839_n2942# sky130_fd_pr__nfet_g5v0d10v5 ad=0.725 pd=5.29 as=0.725 ps=5.29 w=5 l=1
X95 a_229_n500# a_29_n2808# a_n29_n500# a_n5839_n2942# sky130_fd_pr__nfet_g5v0d10v5 ad=0.725 pd=5.29 as=0.725 ps=5.29 w=5 l=1
X96 a_n29_n1610# a_n229_n2808# a_n287_n1610# a_n5839_n2942# sky130_fd_pr__nfet_g5v0d10v5 ad=0.725 pd=5.29 as=0.725 ps=5.29 w=5 l=1
X97 a_n1577_n1610# a_n1777_n2808# a_n1835_n1610# a_n5839_n2942# sky130_fd_pr__nfet_g5v0d10v5 ad=0.725 pd=5.29 as=0.725 ps=5.29 w=5 l=1
X98 a_n2093_1720# a_n2293_n2808# a_n2351_1720# a_n5839_n2942# sky130_fd_pr__nfet_g5v0d10v5 ad=0.725 pd=5.29 as=0.725 ps=5.29 w=5 l=1
X99 a_n29_n500# a_n229_n2808# a_n287_n500# a_n5839_n2942# sky130_fd_pr__nfet_g5v0d10v5 ad=0.725 pd=5.29 as=0.725 ps=5.29 w=5 l=1
X100 a_229_1720# a_29_n2808# a_n29_1720# a_n5839_n2942# sky130_fd_pr__nfet_g5v0d10v5 ad=0.725 pd=5.29 as=0.725 ps=5.29 w=5 l=1
X101 a_2551_610# a_2351_n2808# a_2293_610# a_n5839_n2942# sky130_fd_pr__nfet_g5v0d10v5 ad=0.725 pd=5.29 as=0.725 ps=5.29 w=5 l=1
X102 a_3067_n2720# a_2867_n2808# a_2809_n2720# a_n5839_n2942# sky130_fd_pr__nfet_g5v0d10v5 ad=0.725 pd=5.29 as=0.725 ps=5.29 w=5 l=1
X103 a_2035_n1610# a_1835_n2808# a_1777_n1610# a_n5839_n2942# sky130_fd_pr__nfet_g5v0d10v5 ad=0.725 pd=5.29 as=0.725 ps=5.29 w=5 l=1
X104 a_n29_1720# a_n229_n2808# a_n287_1720# a_n5839_n2942# sky130_fd_pr__nfet_g5v0d10v5 ad=0.725 pd=5.29 as=0.725 ps=5.29 w=5 l=1
X105 a_n1061_610# a_n1261_n2808# a_n1319_610# a_n5839_n2942# sky130_fd_pr__nfet_g5v0d10v5 ad=0.725 pd=5.29 as=0.725 ps=5.29 w=5 l=1
X106 a_n1319_n1610# a_n1519_n2808# a_n1577_n1610# a_n5839_n2942# sky130_fd_pr__nfet_g5v0d10v5 ad=0.725 pd=5.29 as=0.725 ps=5.29 w=5 l=1
X107 a_n4673_n1610# a_n4873_n2808# a_n4931_n1610# a_n5839_n2942# sky130_fd_pr__nfet_g5v0d10v5 ad=0.725 pd=5.29 as=0.725 ps=5.29 w=5 l=1
X108 a_n287_610# a_n487_n2808# a_n545_610# a_n5839_n2942# sky130_fd_pr__nfet_g5v0d10v5 ad=0.725 pd=5.29 as=0.725 ps=5.29 w=5 l=1
X109 a_2809_n2720# a_2609_n2808# a_2551_n2720# a_n5839_n2942# sky130_fd_pr__nfet_g5v0d10v5 ad=0.725 pd=5.29 as=0.725 ps=5.29 w=5 l=1
X110 a_5131_n1610# a_4931_n2808# a_4873_n1610# a_n5839_n2942# sky130_fd_pr__nfet_g5v0d10v5 ad=0.725 pd=5.29 as=0.725 ps=5.29 w=5 l=1
X111 a_1777_n2720# a_1577_n2808# a_1519_n2720# a_n5839_n2942# sky130_fd_pr__nfet_g5v0d10v5 ad=0.725 pd=5.29 as=0.725 ps=5.29 w=5 l=1
X112 a_n5447_n2720# a_n5647_n2808# a_n5705_n2720# a_n5839_n2942# sky130_fd_pr__nfet_g5v0d10v5 ad=0.725 pd=5.29 as=1.45 ps=10.58 w=5 l=1
X113 a_n4415_n1610# a_n4615_n2808# a_n4673_n1610# a_n5839_n2942# sky130_fd_pr__nfet_g5v0d10v5 ad=0.725 pd=5.29 as=0.725 ps=5.29 w=5 l=1
X114 a_n3383_n1610# a_n3583_n2808# a_n3641_n1610# a_n5839_n2942# sky130_fd_pr__nfet_g5v0d10v5 ad=0.725 pd=5.29 as=0.725 ps=5.29 w=5 l=1
X115 a_n4415_610# a_n4615_n2808# a_n4673_610# a_n5839_n2942# sky130_fd_pr__nfet_g5v0d10v5 ad=0.725 pd=5.29 as=0.725 ps=5.29 w=5 l=1
X116 a_4873_n2720# a_4673_n2808# a_4615_n2720# a_n5839_n2942# sky130_fd_pr__nfet_g5v0d10v5 ad=0.725 pd=5.29 as=0.725 ps=5.29 w=5 l=1
X117 a_3841_n1610# a_3641_n2808# a_3583_n1610# a_n5839_n2942# sky130_fd_pr__nfet_g5v0d10v5 ad=0.725 pd=5.29 as=0.725 ps=5.29 w=5 l=1
X118 a_1519_n2720# a_1319_n2808# a_1261_n2720# a_n5839_n2942# sky130_fd_pr__nfet_g5v0d10v5 ad=0.725 pd=5.29 as=0.725 ps=5.29 w=5 l=1
X119 a_n4931_610# a_n5131_n2808# a_n5189_610# a_n5839_n2942# sky130_fd_pr__nfet_g5v0d10v5 ad=0.725 pd=5.29 as=0.725 ps=5.29 w=5 l=1
X120 a_3841_610# a_3641_n2808# a_3583_610# a_n5839_n2942# sky130_fd_pr__nfet_g5v0d10v5 ad=0.725 pd=5.29 as=0.725 ps=5.29 w=5 l=1
X121 a_n4157_n2720# a_n4357_n2808# a_n4415_n2720# a_n5839_n2942# sky130_fd_pr__nfet_g5v0d10v5 ad=0.725 pd=5.29 as=0.725 ps=5.29 w=5 l=1
X122 a_n3125_n1610# a_n3325_n2808# a_n3383_n1610# a_n5839_n2942# sky130_fd_pr__nfet_g5v0d10v5 ad=0.725 pd=5.29 as=0.725 ps=5.29 w=5 l=1
X123 a_n2093_n1610# a_n2293_n2808# a_n2351_n1610# a_n5839_n2942# sky130_fd_pr__nfet_g5v0d10v5 ad=0.725 pd=5.29 as=0.725 ps=5.29 w=5 l=1
X124 a_n2351_610# a_n2551_n2808# a_n2609_610# a_n5839_n2942# sky130_fd_pr__nfet_g5v0d10v5 ad=0.725 pd=5.29 as=0.725 ps=5.29 w=5 l=1
X125 a_745_n1610# a_545_n2808# a_487_n1610# a_n5839_n2942# sky130_fd_pr__nfet_g5v0d10v5 ad=0.725 pd=5.29 as=0.725 ps=5.29 w=5 l=1
X126 a_3067_n500# a_2867_n2808# a_2809_n500# a_n5839_n2942# sky130_fd_pr__nfet_g5v0d10v5 ad=0.725 pd=5.29 as=0.725 ps=5.29 w=5 l=1
X127 a_4615_n2720# a_4415_n2808# a_4357_n2720# a_n5839_n2942# sky130_fd_pr__nfet_g5v0d10v5 ad=0.725 pd=5.29 as=0.725 ps=5.29 w=5 l=1
X128 a_5389_n1610# a_5189_n2808# a_5131_n1610# a_n5839_n2942# sky130_fd_pr__nfet_g5v0d10v5 ad=0.725 pd=5.29 as=0.725 ps=5.29 w=5 l=1
X129 a_3583_n2720# a_3383_n2808# a_3325_n2720# a_n5839_n2942# sky130_fd_pr__nfet_g5v0d10v5 ad=0.725 pd=5.29 as=0.725 ps=5.29 w=5 l=1
X130 a_2551_n1610# a_2351_n2808# a_2293_n1610# a_n5839_n2942# sky130_fd_pr__nfet_g5v0d10v5 ad=0.725 pd=5.29 as=0.725 ps=5.29 w=5 l=1
X131 a_5131_n500# a_4931_n2808# a_4873_n500# a_n5839_n2942# sky130_fd_pr__nfet_g5v0d10v5 ad=0.725 pd=5.29 as=0.725 ps=5.29 w=5 l=1
X132 a_3067_1720# a_2867_n2808# a_2809_1720# a_n5839_n2942# sky130_fd_pr__nfet_g5v0d10v5 ad=0.725 pd=5.29 as=0.725 ps=5.29 w=5 l=1
X133 a_n2867_n2720# a_n3067_n2808# a_n3125_n2720# a_n5839_n2942# sky130_fd_pr__nfet_g5v0d10v5 ad=0.725 pd=5.29 as=0.725 ps=5.29 w=5 l=1
X134 a_n1835_n1610# a_n2035_n2808# a_n2093_n1610# a_n5839_n2942# sky130_fd_pr__nfet_g5v0d10v5 ad=0.725 pd=5.29 as=0.725 ps=5.29 w=5 l=1
X135 a_5131_1720# a_4931_n2808# a_4873_1720# a_n5839_n2942# sky130_fd_pr__nfet_g5v0d10v5 ad=0.725 pd=5.29 as=0.725 ps=5.29 w=5 l=1
X136 a_4873_n500# a_4673_n2808# a_4615_n500# a_n5839_n2942# sky130_fd_pr__nfet_g5v0d10v5 ad=0.725 pd=5.29 as=0.725 ps=5.29 w=5 l=1
X137 a_4357_610# a_4157_n2808# a_4099_610# a_n5839_n2942# sky130_fd_pr__nfet_g5v0d10v5 ad=0.725 pd=5.29 as=0.725 ps=5.29 w=5 l=1
X138 a_3325_n2720# a_3125_n2808# a_3067_n2720# a_n5839_n2942# sky130_fd_pr__nfet_g5v0d10v5 ad=0.725 pd=5.29 as=0.725 ps=5.29 w=5 l=1
X139 a_487_n2720# a_287_n2808# a_229_n2720# a_n5839_n2942# sky130_fd_pr__nfet_g5v0d10v5 ad=0.725 pd=5.29 as=0.725 ps=5.29 w=5 l=1
X140 a_4873_1720# a_4673_n2808# a_4615_1720# a_n5839_n2942# sky130_fd_pr__nfet_g5v0d10v5 ad=0.725 pd=5.29 as=0.725 ps=5.29 w=5 l=1
X141 a_n1319_n500# a_n1519_n2808# a_n1577_n500# a_n5839_n2942# sky130_fd_pr__nfet_g5v0d10v5 ad=0.725 pd=5.29 as=0.725 ps=5.29 w=5 l=1
X142 a_2551_n500# a_2351_n2808# a_2293_n500# a_n5839_n2942# sky130_fd_pr__nfet_g5v0d10v5 ad=0.725 pd=5.29 as=0.725 ps=5.29 w=5 l=1
X143 a_n2867_610# a_n3067_n2808# a_n3125_610# a_n5839_n2942# sky130_fd_pr__nfet_g5v0d10v5 ad=0.725 pd=5.29 as=0.725 ps=5.29 w=5 l=1
X144 a_n5447_n500# a_n5647_n2808# a_n5705_n500# a_n5839_n2942# sky130_fd_pr__nfet_g5v0d10v5 ad=0.725 pd=5.29 as=1.45 ps=10.58 w=5 l=1
X145 a_2293_n2720# a_2093_n2808# a_2035_n2720# a_n5839_n2942# sky130_fd_pr__nfet_g5v0d10v5 ad=0.725 pd=5.29 as=0.725 ps=5.29 w=5 l=1
X146 a_1261_n1610# a_1061_n2808# a_1003_n1610# a_n5839_n2942# sky130_fd_pr__nfet_g5v0d10v5 ad=0.725 pd=5.29 as=0.725 ps=5.29 w=5 l=1
X147 a_n4931_n1610# a_n5131_n2808# a_n5189_n1610# a_n5839_n2942# sky130_fd_pr__nfet_g5v0d10v5 ad=0.725 pd=5.29 as=0.725 ps=5.29 w=5 l=1
X148 a_1777_610# a_1577_n2808# a_1519_610# a_n5839_n2942# sky130_fd_pr__nfet_g5v0d10v5 ad=0.725 pd=5.29 as=0.725 ps=5.29 w=5 l=1
X149 a_n545_n500# a_n745_n2808# a_n803_n500# a_n5839_n2942# sky130_fd_pr__nfet_g5v0d10v5 ad=0.725 pd=5.29 as=0.725 ps=5.29 w=5 l=1
X150 a_2293_n500# a_2093_n2808# a_2035_n500# a_n5839_n2942# sky130_fd_pr__nfet_g5v0d10v5 ad=0.725 pd=5.29 as=0.725 ps=5.29 w=5 l=1
X151 a_n1319_1720# a_n1519_n2808# a_n1577_1720# a_n5839_n2942# sky130_fd_pr__nfet_g5v0d10v5 ad=0.725 pd=5.29 as=0.725 ps=5.29 w=5 l=1
X152 a_2551_1720# a_2351_n2808# a_2293_1720# a_n5839_n2942# sky130_fd_pr__nfet_g5v0d10v5 ad=0.725 pd=5.29 as=0.725 ps=5.29 w=5 l=1
X153 a_n5189_n500# a_n5389_n2808# a_n5447_n500# a_n5839_n2942# sky130_fd_pr__nfet_g5v0d10v5 ad=0.725 pd=5.29 as=0.725 ps=5.29 w=5 l=1
X154 a_n5447_1720# a_n5647_n2808# a_n5705_1720# a_n5839_n2942# sky130_fd_pr__nfet_g5v0d10v5 ad=0.725 pd=5.29 as=1.45 ps=10.58 w=5 l=1
X155 a_n3125_n500# a_n3325_n2808# a_n3383_n500# a_n5839_n2942# sky130_fd_pr__nfet_g5v0d10v5 ad=0.725 pd=5.29 as=0.725 ps=5.29 w=5 l=1
X156 a_n287_n500# a_n487_n2808# a_n545_n500# a_n5839_n2942# sky130_fd_pr__nfet_g5v0d10v5 ad=0.725 pd=5.29 as=0.725 ps=5.29 w=5 l=1
X157 a_n545_1720# a_n745_n2808# a_n803_1720# a_n5839_n2942# sky130_fd_pr__nfet_g5v0d10v5 ad=0.725 pd=5.29 as=0.725 ps=5.29 w=5 l=1
X158 a_2293_1720# a_2093_n2808# a_2035_1720# a_n5839_n2942# sky130_fd_pr__nfet_g5v0d10v5 ad=0.725 pd=5.29 as=0.725 ps=5.29 w=5 l=1
X159 a_2293_610# a_2093_n2808# a_2035_610# a_n5839_n2942# sky130_fd_pr__nfet_g5v0d10v5 ad=0.725 pd=5.29 as=0.725 ps=5.29 w=5 l=1
X160 a_5131_610# a_4931_n2808# a_4873_610# a_n5839_n2942# sky130_fd_pr__nfet_g5v0d10v5 ad=0.725 pd=5.29 as=0.725 ps=5.29 w=5 l=1
X161 a_n2867_n500# a_n3067_n2808# a_n3125_n500# a_n5839_n2942# sky130_fd_pr__nfet_g5v0d10v5 ad=0.725 pd=5.29 as=0.725 ps=5.29 w=5 l=1
X162 a_n803_n500# a_n1003_n2808# a_n1061_n500# a_n5839_n2942# sky130_fd_pr__nfet_g5v0d10v5 ad=0.725 pd=5.29 as=0.725 ps=5.29 w=5 l=1
X163 a_229_n1610# a_29_n2808# a_n29_n1610# a_n5839_n2942# sky130_fd_pr__nfet_g5v0d10v5 ad=0.725 pd=5.29 as=0.725 ps=5.29 w=5 l=1
X164 a_n545_n1610# a_n745_n2808# a_n803_n1610# a_n5839_n2942# sky130_fd_pr__nfet_g5v0d10v5 ad=0.725 pd=5.29 as=0.725 ps=5.29 w=5 l=1
X165 a_n5189_1720# a_n5389_n2808# a_n5447_1720# a_n5839_n2942# sky130_fd_pr__nfet_g5v0d10v5 ad=0.725 pd=5.29 as=0.725 ps=5.29 w=5 l=1