* NGSPICE file created from sky130_pa_ip__instramp.ext - technology: sky130A

.subckt sky130_fd_sc_hvl__lsbuflv2hv_1 A LVPWR VGND VNB VPB VPWR X VPWR_uq0 VGND_uq0
+ VNB_uq0
X0 VGND a_404_1133# a_504_1221# VNB_uq0 sky130_fd_pr__nfet_g5v0d10v5 ad=0.21 pd=1.78 as=0.21 ps=1.78 w=1.5 l=0.5
X1 a_504_1221# a_404_1133# VGND VNB_uq0 sky130_fd_pr__nfet_g5v0d10v5 ad=0.21 pd=1.78 as=0.21 ps=1.78 w=1.5 l=0.5
X2 X a_1711_885# VPWR VPB sky130_fd_pr__pfet_g5v0d10v5 ad=0.3975 pd=3.53 as=0.24375 ps=1.825 w=1.5 l=0.5
R0 VNB_uq0 VNB 0.000000
X3 X a_1711_885# VGND VNB_uq0 sky130_fd_pr__nfet_g5v0d10v5 ad=0.19875 pd=2.03 as=0.121875 ps=1.075 w=0.75 l=0.5
X4 VGND_uq0 A a_404_1133# VNB_uq0 sky130_fd_pr__nfet_01v8 ad=0.1176 pd=1.12 as=0.2478 ps=2.27 w=0.84 l=0.15
X5 a_1197_107# a_772_151# VGND_uq0 VNB_uq0 sky130_fd_pr__nfet_g5v0d10v5 ad=0.21 pd=1.78 as=0.21 ps=1.78 w=1.5 l=0.5
X6 VPWR_uq0 a_1197_107# a_504_1221# VPB sky130_fd_pr__pfet_g5v0d10v5 ad=0.2142 pd=1.99 as=0.2142 ps=1.99 w=0.42 l=1
X7 a_504_1221# a_404_1133# VGND VNB_uq0 sky130_fd_pr__nfet_g5v0d10v5 ad=0.3975 pd=3.53 as=0.21 ps=1.78 w=1.5 l=0.5
X8 a_1197_107# a_772_151# VGND_uq0 VNB_uq0 sky130_fd_pr__nfet_g5v0d10v5 ad=0.3975 pd=3.53 as=0.21 ps=1.78 w=1.5 l=0.5
X9 a_504_1221# a_404_1133# VGND VNB_uq0 sky130_fd_pr__nfet_g5v0d10v5 ad=0.21 pd=1.78 as=0.3975 ps=3.53 w=1.5 l=0.5
X10 VGND a_404_1133# a_504_1221# VNB_uq0 sky130_fd_pr__nfet_g5v0d10v5 ad=0.21 pd=1.78 as=0.21 ps=1.78 w=1.5 l=0.5
X11 a_772_151# a_404_1133# VGND_uq0 VNB_uq0 sky130_fd_pr__nfet_01v8 ad=0.2478 pd=2.27 as=0.1176 ps=1.12 w=0.84 l=0.15
X12 VGND_uq0 a_772_151# a_1197_107# VNB_uq0 sky130_fd_pr__nfet_g5v0d10v5 ad=0.21 pd=1.78 as=0.21 ps=1.78 w=1.5 l=0.5
X13 LVPWR A a_404_1133# LVPWR sky130_fd_pr__pfet_01v8_hvt ad=0.1176 pd=1.12 as=0.2478 ps=2.27 w=0.84 l=0.15
X14 VPWR a_504_1221# a_1711_885# VPB sky130_fd_pr__pfet_g5v0d10v5 ad=0.24375 pd=1.825 as=0.3975 ps=3.53 w=1.5 l=0.5
X15 VGND a_504_1221# a_1711_885# VNB_uq0 sky130_fd_pr__nfet_g5v0d10v5 ad=0.121875 pd=1.075 as=0.19875 ps=2.03 w=0.75 l=0.5
X16 VGND_uq0 a_772_151# a_1197_107# VNB_uq0 sky130_fd_pr__nfet_g5v0d10v5 ad=0.21 pd=1.78 as=0.21 ps=1.78 w=1.5 l=0.5
X17 a_772_151# a_404_1133# LVPWR LVPWR sky130_fd_pr__pfet_01v8_hvt ad=0.2478 pd=2.27 as=0.1176 ps=1.12 w=0.84 l=0.15
X18 a_1197_107# a_772_151# VGND_uq0 VNB_uq0 sky130_fd_pr__nfet_g5v0d10v5 ad=0.21 pd=1.78 as=0.3975 ps=3.53 w=1.5 l=0.5
X19 VPWR a_504_1221# a_1197_107# VPB sky130_fd_pr__pfet_g5v0d10v5 ad=0.1113 pd=1.37 as=0.1365 ps=1.49 w=0.42 l=1
.ends

.subckt sky130_fd_sc_hvl__inv_1 A VGND VNB VPB VPWR Y
X0 Y A VPWR VPB sky130_fd_pr__pfet_g5v0d10v5 ad=0.4275 pd=3.57 as=0.4275 ps=3.57 w=1.5 l=0.5
X1 Y A VGND VNB sky130_fd_pr__nfet_g5v0d10v5 ad=0.21375 pd=2.07 as=0.21375 ps=2.07 w=0.75 l=0.5
.ends

.subckt sky130_fd_pr__res_xhigh_po_0p35_Q2LWZP a_214_n1416# a_n118_984# a_48_n1416#
+ a_n450_984# a_n580_n1546# a_n284_n1416# a_n118_n1416# a_48_984# a_380_984# a_380_n1416#
+ a_214_984# a_n284_984# a_n450_n1416#
X0 a_n118_984# a_n118_n1416# a_n580_n1546# sky130_fd_pr__res_xhigh_po_0p35 l=10
X1 a_380_984# a_380_n1416# a_n580_n1546# sky130_fd_pr__res_xhigh_po_0p35 l=10
X2 a_214_984# a_214_n1416# a_n580_n1546# sky130_fd_pr__res_xhigh_po_0p35 l=10
X3 a_n284_984# a_n284_n1416# a_n580_n1546# sky130_fd_pr__res_xhigh_po_0p35 l=10
X4 a_n450_984# a_n450_n1416# a_n580_n1546# sky130_fd_pr__res_xhigh_po_0p35 l=10
X5 a_48_984# a_48_n1416# a_n580_n1546# sky130_fd_pr__res_xhigh_po_0p35 l=10
.ends

.subckt sky130_fd_sc_hvl__diode_2 DIODE VGND VNB VPB VPWR
X0 VNB DIODE sky130_fd_pr__diode_pw2nd_11v0 perim=3.16e+06 area=6.072e+11
.ends

.subckt sky130_fd_pr__nfet_g5v0d10v5_92HZNS a_50_n100# a_n242_n322# a_n108_n100# a_n50_n188#
X0 a_50_n100# a_n50_n188# a_n108_n100# a_n242_n322# sky130_fd_pr__nfet_g5v0d10v5 ad=0.29 pd=2.58 as=0.29 ps=2.58 w=1 l=0.5
.ends

.subckt sky130_fd_pr__pfet_g5v0d10v5_TUFYNQ a_n50_n197# a_50_n100# w_n308_n397# a_n108_n100#
X0 a_50_n100# a_n50_n197# a_n108_n100# w_n308_n397# sky130_fd_pr__pfet_g5v0d10v5 ad=0.29 pd=2.58 as=0.29 ps=2.58 w=1 l=0.5
.ends

.subckt T_Gate_5V UPPER PGATE NGATE LOWER AVSS AVDD
XXM1 LOWER AVSS UPPER NGATE sky130_fd_pr__nfet_g5v0d10v5_92HZNS
XXM2 PGATE LOWER AVDD UPPER sky130_fd_pr__pfet_g5v0d10v5_TUFYNQ
.ends

.subckt Universal_R_2R_Block2 VD DVDD CMOUT R2RIN R2ROUT VIRTOUT AVSS DVSS AVDD
Xx1 VD DVDD DVSS DVSS AVDD AVDD VDbuf AVDD DVSS DVSS sky130_fd_sc_hvl__lsbuflv2hv_1
Xx2 VDbuf DVSS DVSS AVDD AVDD VDBAR sky130_fd_sc_hvl__inv_1
Xsky130_fd_pr__res_xhigh_po_0p35_Q2LWZP_0 m1_4390_n2466# m1_6792_n1970# m1_4394_n2136#
+ x13/LOWER AVSS m1_4392_n1802# m1_4394_n2136# R2ROUT R2RIN m1_4390_n2466# R2ROUT
+ m1_6792_n1970# m1_4392_n1802# sky130_fd_pr__res_xhigh_po_0p35_Q2LWZP
Xsky130_fd_sc_hvl__diode_2_0 VD DVSS DVSS AVDD AVDD sky130_fd_sc_hvl__diode_2
Xx12 VIRTOUT VDBAR VDbuf x13/LOWER AVSS AVDD T_Gate_5V
Xx13 CMOUT VDbuf VDBAR x13/LOWER AVSS AVDD T_Gate_5V
.ends

.subckt sky130_fd_pr__res_high_po_0p69_FJD3D2 a_n199_n4646# a_n69_4084# a_n69_n4516#
X0 a_n69_4084# a_n69_n4516# a_n199_n4646# sky130_fd_pr__res_high_po_0p69 l=41
.ends

.subckt sky130_fd_pr__nfet_05v0_nvt_FEJX3A a_952_n991# a_n1352_n573# a_200_318# a_318_736#
+ a_n952_n518# a_n258_n100# a_n952_736# a_776_n100# a_n834_318# a_n776_n991# a_n258_n936#
+ a_n258_736# a_952_681# a_776_n936# a_894_736# a_n834_n518# a_n200_n573# a_318_n100#
+ a_776_318# a_200_n518# a_n1352_681# a_376_n991# a_1352_n518# a_318_n936# a_n376_n518#
+ a_894_n518# a_318_318# a_n1544_n1158# a_952_n573# a_n1352_n155# a_n952_318# a_n1410_n100#
+ a_n1410_736# a_n376_736# a_n200_681# a_n1410_n936# a_n258_n518# a_n776_n573# a_n258_318#
+ a_776_n518# a_894_318# a_952_263# a_n200_n155# a_1352_736# a_376_681# a_n1352_263#
+ a_318_n518# a_376_n573# a_n776_681# a_n952_n100# a_952_n155# a_200_736# a_n952_n936#
+ a_n1352_n991# a_n1410_318# a_n376_318# a_n200_263# a_n776_n155# a_n834_736# a_n1410_n518#
+ a_n834_n100# a_200_n100# a_1352_318# a_n200_n991# a_1352_n100# a_376_263# a_n834_n936#
+ a_n376_n100# a_776_736# a_1352_n936# a_200_n936# a_894_n100# a_376_n155# a_n376_n936#
+ a_n776_263# a_894_n936#
X0 a_1352_n518# a_952_n573# a_894_n518# a_n1544_n1158# sky130_fd_pr__nfet_05v0_nvt ad=0.29 pd=2.58 as=0.29 ps=2.58 w=1 l=2
X1 a_n376_n518# a_n776_n573# a_n834_n518# a_n1544_n1158# sky130_fd_pr__nfet_05v0_nvt ad=0.29 pd=2.58 as=0.29 ps=2.58 w=1 l=2
X2 a_n952_n100# a_n1352_n155# a_n1410_n100# a_n1544_n1158# sky130_fd_pr__nfet_05v0_nvt ad=0.29 pd=2.58 as=0.29 ps=2.58 w=1 l=2
X3 a_n376_n100# a_n776_n155# a_n834_n100# a_n1544_n1158# sky130_fd_pr__nfet_05v0_nvt ad=0.29 pd=2.58 as=0.29 ps=2.58 w=1 l=2
X4 a_200_n100# a_n200_n155# a_n258_n100# a_n1544_n1158# sky130_fd_pr__nfet_05v0_nvt ad=0.29 pd=2.58 as=0.29 ps=2.58 w=1 l=2
X5 a_776_736# a_376_681# a_318_736# a_n1544_n1158# sky130_fd_pr__nfet_05v0_nvt ad=0.29 pd=2.58 as=0.29 ps=2.58 w=1 l=2
X6 a_1352_736# a_952_681# a_894_736# a_n1544_n1158# sky130_fd_pr__nfet_05v0_nvt ad=0.29 pd=2.58 as=0.29 ps=2.58 w=1 l=2
X7 a_n952_n518# a_n1352_n573# a_n1410_n518# a_n1544_n1158# sky130_fd_pr__nfet_05v0_nvt ad=0.29 pd=2.58 as=0.29 ps=2.58 w=1 l=2
X8 a_n952_318# a_n1352_263# a_n1410_318# a_n1544_n1158# sky130_fd_pr__nfet_05v0_nvt ad=0.29 pd=2.58 as=0.29 ps=2.58 w=1 l=2
X9 a_776_n936# a_376_n991# a_318_n936# a_n1544_n1158# sky130_fd_pr__nfet_05v0_nvt ad=0.29 pd=2.58 as=0.29 ps=2.58 w=1 l=2
X10 a_200_n936# a_n200_n991# a_n258_n936# a_n1544_n1158# sky130_fd_pr__nfet_05v0_nvt ad=0.29 pd=2.58 as=0.29 ps=2.58 w=1 l=2
X11 a_n376_318# a_n776_263# a_n834_318# a_n1544_n1158# sky130_fd_pr__nfet_05v0_nvt ad=0.29 pd=2.58 as=0.29 ps=2.58 w=1 l=2
X12 a_200_318# a_n200_263# a_n258_318# a_n1544_n1158# sky130_fd_pr__nfet_05v0_nvt ad=0.29 pd=2.58 as=0.29 ps=2.58 w=1 l=2
X13 a_776_n100# a_376_n155# a_318_n100# a_n1544_n1158# sky130_fd_pr__nfet_05v0_nvt ad=0.29 pd=2.58 as=0.29 ps=2.58 w=1 l=2
X14 a_1352_n100# a_952_n155# a_894_n100# a_n1544_n1158# sky130_fd_pr__nfet_05v0_nvt ad=0.29 pd=2.58 as=0.29 ps=2.58 w=1 l=2
X15 a_n376_n936# a_n776_n991# a_n834_n936# a_n1544_n1158# sky130_fd_pr__nfet_05v0_nvt ad=0.29 pd=2.58 as=0.29 ps=2.58 w=1 l=2
X16 a_1352_n936# a_952_n991# a_894_n936# a_n1544_n1158# sky130_fd_pr__nfet_05v0_nvt ad=0.29 pd=2.58 as=0.29 ps=2.58 w=1 l=2
X17 a_776_318# a_376_263# a_318_318# a_n1544_n1158# sky130_fd_pr__nfet_05v0_nvt ad=0.29 pd=2.58 as=0.29 ps=2.58 w=1 l=2
X18 a_1352_318# a_952_263# a_894_318# a_n1544_n1158# sky130_fd_pr__nfet_05v0_nvt ad=0.29 pd=2.58 as=0.29 ps=2.58 w=1 l=2
X19 a_n952_n936# a_n1352_n991# a_n1410_n936# a_n1544_n1158# sky130_fd_pr__nfet_05v0_nvt ad=0.29 pd=2.58 as=0.29 ps=2.58 w=1 l=2
X20 a_n952_736# a_n1352_681# a_n1410_736# a_n1544_n1158# sky130_fd_pr__nfet_05v0_nvt ad=0.29 pd=2.58 as=0.29 ps=2.58 w=1 l=2
X21 a_200_736# a_n200_681# a_n258_736# a_n1544_n1158# sky130_fd_pr__nfet_05v0_nvt ad=0.29 pd=2.58 as=0.29 ps=2.58 w=1 l=2
X22 a_776_n518# a_376_n573# a_318_n518# a_n1544_n1158# sky130_fd_pr__nfet_05v0_nvt ad=0.29 pd=2.58 as=0.29 ps=2.58 w=1 l=2
X23 a_n376_736# a_n776_681# a_n834_736# a_n1544_n1158# sky130_fd_pr__nfet_05v0_nvt ad=0.29 pd=2.58 as=0.29 ps=2.58 w=1 l=2
X24 a_200_n518# a_n200_n573# a_n258_n518# a_n1544_n1158# sky130_fd_pr__nfet_05v0_nvt ad=0.29 pd=2.58 as=0.29 ps=2.58 w=1 l=2
.ends

.subckt sky130_fd_pr__nfet_g5v0d10v5_NZU856 a_616_n1610# a_n2938_n2808# a_n2738_n500#
+ a_874_n2720# a_n1190_n1610# a_1132_1720# a_n1448_610# a_n932_610# a_n416_n1610#
+ a_1390_n1610# a_1906_n500# a_n674_n2720# a_1132_n2720# a_n2480_n500# a_n2996_1720#
+ a_n2164_n2808# a_n416_610# a_n2738_n1610# a_n2996_n2720# a_1390_610# a_2938_n1610#
+ a_n1648_n2808# a_358_n500# a_n158_1720# a_2222_n2808# a_2164_n500# a_874_610# a_1706_n2808#
+ a_n1706_n500# a_2164_n1610# a_674_n2808# a_n674_n500# a_100_n500# a_n1448_n1610#
+ a_358_610# a_616_1720# a_1648_n1610# a_n1964_1720# a_2422_1720# a_n100_n2808# a_n932_n2720#
+ a_n1190_610# a_358_n2720# a_n932_1720# a_1132_n500# a_100_n1610# a_n158_n2720# a_n2422_n2808#
+ a_1648_1720# a_n674_610# a_n1906_n2808# a_n2996_n500# a_1390_1720# a_n158_610# a_n2222_1720#
+ a_n2222_n1610# a_n2480_n2720# a_n158_n500# a_2422_n1610# a_2680_n2720# a_932_n2808#
+ a_n1132_n2808# a_n1706_n1610# a_n874_n2808# a_n1964_n2720# a_n1448_1720# a_1906_n1610#
+ a_158_n2808# a_874_n1610# a_616_n2720# a_n1190_1720# a_616_n500# a_n674_n1610# a_n1190_n2720#
+ a_n416_1720# a_2938_610# a_2422_610# a_n1964_n500# a_1132_n1610# a_1390_n2720# a_n416_n2720#
+ a_1906_610# a_2422_n500# a_2938_1720# a_n2996_n1610# a_874_1720# a_n2738_n2720#
+ a_n932_n500# a_2938_n2720# a_2480_n2808# a_2680_1720# a_1648_n500# a_1964_n2808#
+ a_n2222_n500# a_1390_n500# a_n2738_1720# a_2164_n2720# a_416_n2808# a_n358_n2808#
+ a_n2738_610# a_n1448_n2720# a_n2222_610# a_n1706_610# a_1648_n2720# a_1906_1720#
+ a_1190_n2808# a_n2480_1720# a_n1448_n500# a_n932_n1610# a_358_n1610# a_2680_610#
+ a_n2680_n2808# a_n158_n1610# a_358_1720# a_n1190_n500# a_2738_n2808# a_2164_610#
+ a_100_n2720# a_n416_n500# a_1648_610# a_2164_1720# a_1132_610# a_n1706_1720# a_2938_n500#
+ a_874_n500# a_n2480_n1610# a_100_1720# a_n674_1720# a_2680_n1610# a_n2222_n2720#
+ a_n1390_n2808# a_100_610# a_616_610# a_n1964_n1610# a_2680_n500# a_1448_n2808# a_2422_n2720#
+ a_n616_n2808# a_n3130_n2942# a_n1706_n2720# a_n2996_610# a_n2480_610# a_1906_n2720#
+ a_n1964_610#
X0 a_n2480_n2720# a_n2680_n2808# a_n2738_n2720# a_n3130_n2942# sky130_fd_pr__nfet_g5v0d10v5 ad=0.725 pd=5.29 as=0.725 ps=5.29 w=5 l=1
X1 a_n1448_n1610# a_n1648_n2808# a_n1706_n1610# a_n3130_n2942# sky130_fd_pr__nfet_g5v0d10v5 ad=0.725 pd=5.29 as=0.725 ps=5.29 w=5 l=1
X2 a_2938_n2720# a_2738_n2808# a_2680_n2720# a_n3130_n2942# sky130_fd_pr__nfet_g5v0d10v5 ad=1.45 pd=10.58 as=0.725 ps=5.29 w=5 l=1
X3 a_1906_n1610# a_1706_n2808# a_1648_n1610# a_n3130_n2942# sky130_fd_pr__nfet_g5v0d10v5 ad=0.725 pd=5.29 as=0.725 ps=5.29 w=5 l=1
X4 a_1906_n500# a_1706_n2808# a_1648_n500# a_n3130_n2942# sky130_fd_pr__nfet_g5v0d10v5 ad=0.725 pd=5.29 as=0.725 ps=5.29 w=5 l=1
X5 a_1648_n500# a_1448_n2808# a_1390_n500# a_n3130_n2942# sky130_fd_pr__nfet_g5v0d10v5 ad=0.725 pd=5.29 as=0.725 ps=5.29 w=5 l=1
X6 a_1906_1720# a_1706_n2808# a_1648_1720# a_n3130_n2942# sky130_fd_pr__nfet_g5v0d10v5 ad=0.725 pd=5.29 as=0.725 ps=5.29 w=5 l=1
X7 a_n1190_n2720# a_n1390_n2808# a_n1448_n2720# a_n3130_n2942# sky130_fd_pr__nfet_g5v0d10v5 ad=0.725 pd=5.29 as=0.725 ps=5.29 w=5 l=1
X8 a_1648_1720# a_1448_n2808# a_1390_1720# a_n3130_n2942# sky130_fd_pr__nfet_g5v0d10v5 ad=0.725 pd=5.29 as=0.725 ps=5.29 w=5 l=1
X9 a_2938_610# a_2738_n2808# a_2680_610# a_n3130_n2942# sky130_fd_pr__nfet_g5v0d10v5 ad=1.45 pd=10.58 as=0.725 ps=5.29 w=5 l=1
X10 a_n674_610# a_n874_n2808# a_n932_610# a_n3130_n2942# sky130_fd_pr__nfet_g5v0d10v5 ad=0.725 pd=5.29 as=0.725 ps=5.29 w=5 l=1
X11 a_1648_n2720# a_1448_n2808# a_1390_n2720# a_n3130_n2942# sky130_fd_pr__nfet_g5v0d10v5 ad=0.725 pd=5.29 as=0.725 ps=5.29 w=5 l=1
X12 a_n1448_610# a_n1648_n2808# a_n1706_610# a_n3130_n2942# sky130_fd_pr__nfet_g5v0d10v5 ad=0.725 pd=5.29 as=0.725 ps=5.29 w=5 l=1
X13 a_n1964_610# a_n2164_n2808# a_n2222_610# a_n3130_n2942# sky130_fd_pr__nfet_g5v0d10v5 ad=0.725 pd=5.29 as=0.725 ps=5.29 w=5 l=1
X14 a_874_n1610# a_674_n2808# a_616_n1610# a_n3130_n2942# sky130_fd_pr__nfet_g5v0d10v5 ad=0.725 pd=5.29 as=0.725 ps=5.29 w=5 l=1
X15 a_2680_n1610# a_2480_n2808# a_2422_n1610# a_n3130_n2942# sky130_fd_pr__nfet_g5v0d10v5 ad=0.725 pd=5.29 as=0.725 ps=5.29 w=5 l=1
X16 a_1132_n500# a_932_n2808# a_874_n500# a_n3130_n2942# sky130_fd_pr__nfet_g5v0d10v5 ad=0.725 pd=5.29 as=0.725 ps=5.29 w=5 l=1
X17 a_1132_1720# a_932_n2808# a_874_1720# a_n3130_n2942# sky130_fd_pr__nfet_g5v0d10v5 ad=0.725 pd=5.29 as=0.725 ps=5.29 w=5 l=1
X18 a_n1964_n1610# a_n2164_n2808# a_n2222_n1610# a_n3130_n2942# sky130_fd_pr__nfet_g5v0d10v5 ad=0.725 pd=5.29 as=0.725 ps=5.29 w=5 l=1
X19 a_874_n500# a_674_n2808# a_616_n500# a_n3130_n2942# sky130_fd_pr__nfet_g5v0d10v5 ad=0.725 pd=5.29 as=0.725 ps=5.29 w=5 l=1
X20 a_1390_610# a_1190_n2808# a_1132_610# a_n3130_n2942# sky130_fd_pr__nfet_g5v0d10v5 ad=0.725 pd=5.29 as=0.725 ps=5.29 w=5 l=1
X21 a_616_n1610# a_416_n2808# a_358_n1610# a_n3130_n2942# sky130_fd_pr__nfet_g5v0d10v5 ad=0.725 pd=5.29 as=0.725 ps=5.29 w=5 l=1
X22 a_874_1720# a_674_n2808# a_616_1720# a_n3130_n2942# sky130_fd_pr__nfet_g5v0d10v5 ad=0.725 pd=5.29 as=0.725 ps=5.29 w=5 l=1
X23 a_2422_n1610# a_2222_n2808# a_2164_n1610# a_n3130_n2942# sky130_fd_pr__nfet_g5v0d10v5 ad=0.725 pd=5.29 as=0.725 ps=5.29 w=5 l=1
X24 a_1390_n1610# a_1190_n2808# a_1132_n1610# a_n3130_n2942# sky130_fd_pr__nfet_g5v0d10v5 ad=0.725 pd=5.29 as=0.725 ps=5.29 w=5 l=1
X25 a_n2738_610# a_n2938_n2808# a_n2996_610# a_n3130_n2942# sky130_fd_pr__nfet_g5v0d10v5 ad=0.725 pd=5.29 as=1.45 ps=10.58 w=5 l=1
X26 a_358_n2720# a_158_n2808# a_100_n2720# a_n3130_n2942# sky130_fd_pr__nfet_g5v0d10v5 ad=0.725 pd=5.29 as=0.725 ps=5.29 w=5 l=1
X27 a_n674_n1610# a_n874_n2808# a_n932_n1610# a_n3130_n2942# sky130_fd_pr__nfet_g5v0d10v5 ad=0.725 pd=5.29 as=0.725 ps=5.29 w=5 l=1
X28 a_2164_610# a_1964_n2808# a_1906_610# a_n3130_n2942# sky130_fd_pr__nfet_g5v0d10v5 ad=0.725 pd=5.29 as=0.725 ps=5.29 w=5 l=1
X29 a_2164_n500# a_1964_n2808# a_1906_n500# a_n3130_n2942# sky130_fd_pr__nfet_g5v0d10v5 ad=0.725 pd=5.29 as=0.725 ps=5.29 w=5 l=1
X30 a_2680_610# a_2480_n2808# a_2422_610# a_n3130_n2942# sky130_fd_pr__nfet_g5v0d10v5 ad=0.725 pd=5.29 as=0.725 ps=5.29 w=5 l=1
X31 a_n416_n1610# a_n616_n2808# a_n674_n1610# a_n3130_n2942# sky130_fd_pr__nfet_g5v0d10v5 ad=0.725 pd=5.29 as=0.725 ps=5.29 w=5 l=1
X32 a_616_610# a_416_n2808# a_358_610# a_n3130_n2942# sky130_fd_pr__nfet_g5v0d10v5 ad=0.725 pd=5.29 as=0.725 ps=5.29 w=5 l=1
X33 a_2164_1720# a_1964_n2808# a_1906_1720# a_n3130_n2942# sky130_fd_pr__nfet_g5v0d10v5 ad=0.725 pd=5.29 as=0.725 ps=5.29 w=5 l=1
X34 a_n2738_n500# a_n2938_n2808# a_n2996_n500# a_n3130_n2942# sky130_fd_pr__nfet_g5v0d10v5 ad=0.725 pd=5.29 as=1.45 ps=10.58 w=5 l=1
X35 a_100_n2720# a_n100_n2808# a_n158_n2720# a_n3130_n2942# sky130_fd_pr__nfet_g5v0d10v5 ad=0.725 pd=5.29 as=0.725 ps=5.29 w=5 l=1
X36 a_n2738_n2720# a_n2938_n2808# a_n2996_n2720# a_n3130_n2942# sky130_fd_pr__nfet_g5v0d10v5 ad=0.725 pd=5.29 as=1.45 ps=10.58 w=5 l=1
X37 a_n1706_n1610# a_n1906_n2808# a_n1964_n1610# a_n3130_n2942# sky130_fd_pr__nfet_g5v0d10v5 ad=0.725 pd=5.29 as=0.725 ps=5.29 w=5 l=1
X38 a_n2738_1720# a_n2938_n2808# a_n2996_1720# a_n3130_n2942# sky130_fd_pr__nfet_g5v0d10v5 ad=0.725 pd=5.29 as=1.45 ps=10.58 w=5 l=1
X39 a_n158_n2720# a_n358_n2808# a_n416_n2720# a_n3130_n2942# sky130_fd_pr__nfet_g5v0d10v5 ad=0.725 pd=5.29 as=0.725 ps=5.29 w=5 l=1
X40 a_n2480_n500# a_n2680_n2808# a_n2738_n500# a_n3130_n2942# sky130_fd_pr__nfet_g5v0d10v5 ad=0.725 pd=5.29 as=0.725 ps=5.29 w=5 l=1
X41 a_n1190_610# a_n1390_n2808# a_n1448_610# a_n3130_n2942# sky130_fd_pr__nfet_g5v0d10v5 ad=0.725 pd=5.29 as=0.725 ps=5.29 w=5 l=1
X42 a_1390_n500# a_1190_n2808# a_1132_n500# a_n3130_n2942# sky130_fd_pr__nfet_g5v0d10v5 ad=0.725 pd=5.29 as=0.725 ps=5.29 w=5 l=1
X43 a_n2480_1720# a_n2680_n2808# a_n2738_1720# a_n3130_n2942# sky130_fd_pr__nfet_g5v0d10v5 ad=0.725 pd=5.29 as=0.725 ps=5.29 w=5 l=1
X44 a_2164_n2720# a_1964_n2808# a_1906_n2720# a_n3130_n2942# sky130_fd_pr__nfet_g5v0d10v5 ad=0.725 pd=5.29 as=0.725 ps=5.29 w=5 l=1
X45 a_n2222_n500# a_n2422_n2808# a_n2480_n500# a_n3130_n2942# sky130_fd_pr__nfet_g5v0d10v5 ad=0.725 pd=5.29 as=0.725 ps=5.29 w=5 l=1
X46 a_1390_1720# a_1190_n2808# a_1132_1720# a_n3130_n2942# sky130_fd_pr__nfet_g5v0d10v5 ad=0.725 pd=5.29 as=0.725 ps=5.29 w=5 l=1
X47 a_n1448_n2720# a_n1648_n2808# a_n1706_n2720# a_n3130_n2942# sky130_fd_pr__nfet_g5v0d10v5 ad=0.725 pd=5.29 as=0.725 ps=5.29 w=5 l=1
X48 a_n2222_1720# a_n2422_n2808# a_n2480_1720# a_n3130_n2942# sky130_fd_pr__nfet_g5v0d10v5 ad=0.725 pd=5.29 as=0.725 ps=5.29 w=5 l=1
X49 a_n1964_n500# a_n2164_n2808# a_n2222_n500# a_n3130_n2942# sky130_fd_pr__nfet_g5v0d10v5 ad=0.725 pd=5.29 as=0.725 ps=5.29 w=5 l=1
X50 a_1906_n2720# a_1706_n2808# a_1648_n2720# a_n3130_n2942# sky130_fd_pr__nfet_g5v0d10v5 ad=0.725 pd=5.29 as=0.725 ps=5.29 w=5 l=1
X51 a_n1964_1720# a_n2164_n2808# a_n2222_1720# a_n3130_n2942# sky130_fd_pr__nfet_g5v0d10v5 ad=0.725 pd=5.29 as=0.725 ps=5.29 w=5 l=1
X52 a_1132_n1610# a_932_n2808# a_874_n1610# a_n3130_n2942# sky130_fd_pr__nfet_g5v0d10v5 ad=0.725 pd=5.29 as=0.725 ps=5.29 w=5 l=1
X53 a_n2480_610# a_n2680_n2808# a_n2738_610# a_n3130_n2942# sky130_fd_pr__nfet_g5v0d10v5 ad=0.725 pd=5.29 as=0.725 ps=5.29 w=5 l=1
X54 a_n2222_n1610# a_n2422_n2808# a_n2480_n1610# a_n3130_n2942# sky130_fd_pr__nfet_g5v0d10v5 ad=0.725 pd=5.29 as=0.725 ps=5.29 w=5 l=1
X55 a_100_n500# a_n100_n2808# a_n158_n500# a_n3130_n2942# sky130_fd_pr__nfet_g5v0d10v5 ad=0.725 pd=5.29 as=0.725 ps=5.29 w=5 l=1
X56 a_874_n2720# a_674_n2808# a_616_n2720# a_n3130_n2942# sky130_fd_pr__nfet_g5v0d10v5 ad=0.725 pd=5.29 as=0.725 ps=5.29 w=5 l=1
X57 a_100_1720# a_n100_n2808# a_n158_1720# a_n3130_n2942# sky130_fd_pr__nfet_g5v0d10v5 ad=0.725 pd=5.29 as=0.725 ps=5.29 w=5 l=1
X58 a_2680_n2720# a_2480_n2808# a_2422_n2720# a_n3130_n2942# sky130_fd_pr__nfet_g5v0d10v5 ad=0.725 pd=5.29 as=0.725 ps=5.29 w=5 l=1
X59 a_n1964_n2720# a_n2164_n2808# a_n2222_n2720# a_n3130_n2942# sky130_fd_pr__nfet_g5v0d10v5 ad=0.725 pd=5.29 as=0.725 ps=5.29 w=5 l=1
X60 a_n932_n1610# a_n1132_n2808# a_n1190_n1610# a_n3130_n2942# sky130_fd_pr__nfet_g5v0d10v5 ad=0.725 pd=5.29 as=0.725 ps=5.29 w=5 l=1
X61 a_358_610# a_158_n2808# a_100_610# a_n3130_n2942# sky130_fd_pr__nfet_g5v0d10v5 ad=0.725 pd=5.29 as=0.725 ps=5.29 w=5 l=1
X62 a_616_n2720# a_416_n2808# a_358_n2720# a_n3130_n2942# sky130_fd_pr__nfet_g5v0d10v5 ad=0.725 pd=5.29 as=0.725 ps=5.29 w=5 l=1
X63 a_2422_n2720# a_2222_n2808# a_2164_n2720# a_n3130_n2942# sky130_fd_pr__nfet_g5v0d10v5 ad=0.725 pd=5.29 as=0.725 ps=5.29 w=5 l=1
X64 a_1390_n2720# a_1190_n2808# a_1132_n2720# a_n3130_n2942# sky130_fd_pr__nfet_g5v0d10v5 ad=0.725 pd=5.29 as=0.725 ps=5.29 w=5 l=1
X65 a_2938_n500# a_2738_n2808# a_2680_n500# a_n3130_n2942# sky130_fd_pr__nfet_g5v0d10v5 ad=1.45 pd=10.58 as=0.725 ps=5.29 w=5 l=1
X66 a_1132_610# a_932_n2808# a_874_610# a_n3130_n2942# sky130_fd_pr__nfet_g5v0d10v5 ad=0.725 pd=5.29 as=0.725 ps=5.29 w=5 l=1
X67 a_2938_1720# a_2738_n2808# a_2680_1720# a_n3130_n2942# sky130_fd_pr__nfet_g5v0d10v5 ad=1.45 pd=10.58 as=0.725 ps=5.29 w=5 l=1
X68 a_n416_610# a_n616_n2808# a_n674_610# a_n3130_n2942# sky130_fd_pr__nfet_g5v0d10v5 ad=0.725 pd=5.29 as=0.725 ps=5.29 w=5 l=1
X69 a_n674_n2720# a_n874_n2808# a_n932_n2720# a_n3130_n2942# sky130_fd_pr__nfet_g5v0d10v5 ad=0.725 pd=5.29 as=0.725 ps=5.29 w=5 l=1
X70 a_2422_n500# a_2222_n2808# a_2164_n500# a_n3130_n2942# sky130_fd_pr__nfet_g5v0d10v5 ad=0.725 pd=5.29 as=0.725 ps=5.29 w=5 l=1
X71 a_n416_n500# a_n616_n2808# a_n674_n500# a_n3130_n2942# sky130_fd_pr__nfet_g5v0d10v5 ad=0.725 pd=5.29 as=0.725 ps=5.29 w=5 l=1
X72 a_2422_1720# a_2222_n2808# a_2164_1720# a_n3130_n2942# sky130_fd_pr__nfet_g5v0d10v5 ad=0.725 pd=5.29 as=0.725 ps=5.29 w=5 l=1
X73 a_n416_n2720# a_n616_n2808# a_n674_n2720# a_n3130_n2942# sky130_fd_pr__nfet_g5v0d10v5 ad=0.725 pd=5.29 as=0.725 ps=5.29 w=5 l=1
X74 a_n158_n500# a_n358_n2808# a_n416_n500# a_n3130_n2942# sky130_fd_pr__nfet_g5v0d10v5 ad=0.725 pd=5.29 as=0.725 ps=5.29 w=5 l=1
X75 a_n416_1720# a_n616_n2808# a_n674_1720# a_n3130_n2942# sky130_fd_pr__nfet_g5v0d10v5 ad=0.725 pd=5.29 as=0.725 ps=5.29 w=5 l=1
X76 a_n158_1720# a_n358_n2808# a_n416_1720# a_n3130_n2942# sky130_fd_pr__nfet_g5v0d10v5 ad=0.725 pd=5.29 as=0.725 ps=5.29 w=5 l=1
X77 a_n1706_n2720# a_n1906_n2808# a_n1964_n2720# a_n3130_n2942# sky130_fd_pr__nfet_g5v0d10v5 ad=0.725 pd=5.29 as=0.725 ps=5.29 w=5 l=1
X78 a_n2480_n1610# a_n2680_n2808# a_n2738_n1610# a_n3130_n2942# sky130_fd_pr__nfet_g5v0d10v5 ad=0.725 pd=5.29 as=0.725 ps=5.29 w=5 l=1
X79 a_2938_n1610# a_2738_n2808# a_2680_n1610# a_n3130_n2942# sky130_fd_pr__nfet_g5v0d10v5 ad=1.45 pd=10.58 as=0.725 ps=5.29 w=5 l=1
X80 a_n1190_n1610# a_n1390_n2808# a_n1448_n1610# a_n3130_n2942# sky130_fd_pr__nfet_g5v0d10v5 ad=0.725 pd=5.29 as=0.725 ps=5.29 w=5 l=1
X81 a_1906_610# a_1706_n2808# a_1648_610# a_n3130_n2942# sky130_fd_pr__nfet_g5v0d10v5 ad=0.725 pd=5.29 as=0.725 ps=5.29 w=5 l=1
X82 a_1648_n1610# a_1448_n2808# a_1390_n1610# a_n3130_n2942# sky130_fd_pr__nfet_g5v0d10v5 ad=0.725 pd=5.29 as=0.725 ps=5.29 w=5 l=1
X83 a_2422_610# a_2222_n2808# a_2164_610# a_n3130_n2942# sky130_fd_pr__nfet_g5v0d10v5 ad=0.725 pd=5.29 as=0.725 ps=5.29 w=5 l=1
X84 a_1132_n2720# a_932_n2808# a_874_n2720# a_n3130_n2942# sky130_fd_pr__nfet_g5v0d10v5 ad=0.725 pd=5.29 as=0.725 ps=5.29 w=5 l=1
X85 a_n932_610# a_n1132_n2808# a_n1190_610# a_n3130_n2942# sky130_fd_pr__nfet_g5v0d10v5 ad=0.725 pd=5.29 as=0.725 ps=5.29 w=5 l=1
X86 a_874_610# a_674_n2808# a_616_610# a_n3130_n2942# sky130_fd_pr__nfet_g5v0d10v5 ad=0.725 pd=5.29 as=0.725 ps=5.29 w=5 l=1
X87 a_n1706_n500# a_n1906_n2808# a_n1964_n500# a_n3130_n2942# sky130_fd_pr__nfet_g5v0d10v5 ad=0.725 pd=5.29 as=0.725 ps=5.29 w=5 l=1
X88 a_n158_610# a_n358_n2808# a_n416_610# a_n3130_n2942# sky130_fd_pr__nfet_g5v0d10v5 ad=0.725 pd=5.29 as=0.725 ps=5.29 w=5 l=1
X89 a_n2222_n2720# a_n2422_n2808# a_n2480_n2720# a_n3130_n2942# sky130_fd_pr__nfet_g5v0d10v5 ad=0.725 pd=5.29 as=0.725 ps=5.29 w=5 l=1
X90 a_2680_n500# a_2480_n2808# a_2422_n500# a_n3130_n2942# sky130_fd_pr__nfet_g5v0d10v5 ad=0.725 pd=5.29 as=0.725 ps=5.29 w=5 l=1
X91 a_n1706_1720# a_n1906_n2808# a_n1964_1720# a_n3130_n2942# sky130_fd_pr__nfet_g5v0d10v5 ad=0.725 pd=5.29 as=0.725 ps=5.29 w=5 l=1
X92 a_n1448_n500# a_n1648_n2808# a_n1706_n500# a_n3130_n2942# sky130_fd_pr__nfet_g5v0d10v5 ad=0.725 pd=5.29 as=0.725 ps=5.29 w=5 l=1
X93 a_n674_n500# a_n874_n2808# a_n932_n500# a_n3130_n2942# sky130_fd_pr__nfet_g5v0d10v5 ad=0.725 pd=5.29 as=0.725 ps=5.29 w=5 l=1
X94 a_n1190_n500# a_n1390_n2808# a_n1448_n500# a_n3130_n2942# sky130_fd_pr__nfet_g5v0d10v5 ad=0.725 pd=5.29 as=0.725 ps=5.29 w=5 l=1
X95 a_n1448_1720# a_n1648_n2808# a_n1706_1720# a_n3130_n2942# sky130_fd_pr__nfet_g5v0d10v5 ad=0.725 pd=5.29 as=0.725 ps=5.29 w=5 l=1
X96 a_2680_1720# a_2480_n2808# a_2422_1720# a_n3130_n2942# sky130_fd_pr__nfet_g5v0d10v5 ad=0.725 pd=5.29 as=0.725 ps=5.29 w=5 l=1
X97 a_n674_1720# a_n874_n2808# a_n932_1720# a_n3130_n2942# sky130_fd_pr__nfet_g5v0d10v5 ad=0.725 pd=5.29 as=0.725 ps=5.29 w=5 l=1
X98 a_n932_n2720# a_n1132_n2808# a_n1190_n2720# a_n3130_n2942# sky130_fd_pr__nfet_g5v0d10v5 ad=0.725 pd=5.29 as=0.725 ps=5.29 w=5 l=1
X99 a_n1190_1720# a_n1390_n2808# a_n1448_1720# a_n3130_n2942# sky130_fd_pr__nfet_g5v0d10v5 ad=0.725 pd=5.29 as=0.725 ps=5.29 w=5 l=1
X100 a_100_610# a_n100_n2808# a_n158_610# a_n3130_n2942# sky130_fd_pr__nfet_g5v0d10v5 ad=0.725 pd=5.29 as=0.725 ps=5.29 w=5 l=1
X101 a_n1706_610# a_n1906_n2808# a_n1964_610# a_n3130_n2942# sky130_fd_pr__nfet_g5v0d10v5 ad=0.725 pd=5.29 as=0.725 ps=5.29 w=5 l=1
X102 a_358_n1610# a_158_n2808# a_100_n1610# a_n3130_n2942# sky130_fd_pr__nfet_g5v0d10v5 ad=0.725 pd=5.29 as=0.725 ps=5.29 w=5 l=1
X103 a_n932_n500# a_n1132_n2808# a_n1190_n500# a_n3130_n2942# sky130_fd_pr__nfet_g5v0d10v5 ad=0.725 pd=5.29 as=0.725 ps=5.29 w=5 l=1
X104 a_n932_1720# a_n1132_n2808# a_n1190_1720# a_n3130_n2942# sky130_fd_pr__nfet_g5v0d10v5 ad=0.725 pd=5.29 as=0.725 ps=5.29 w=5 l=1
X105 a_n2222_610# a_n2422_n2808# a_n2480_610# a_n3130_n2942# sky130_fd_pr__nfet_g5v0d10v5 ad=0.725 pd=5.29 as=0.725 ps=5.29 w=5 l=1
X106 a_616_n500# a_416_n2808# a_358_n500# a_n3130_n2942# sky130_fd_pr__nfet_g5v0d10v5 ad=0.725 pd=5.29 as=0.725 ps=5.29 w=5 l=1
X107 a_616_1720# a_416_n2808# a_358_1720# a_n3130_n2942# sky130_fd_pr__nfet_g5v0d10v5 ad=0.725 pd=5.29 as=0.725 ps=5.29 w=5 l=1
X108 a_358_n500# a_158_n2808# a_100_n500# a_n3130_n2942# sky130_fd_pr__nfet_g5v0d10v5 ad=0.725 pd=5.29 as=0.725 ps=5.29 w=5 l=1
X109 a_100_n1610# a_n100_n2808# a_n158_n1610# a_n3130_n2942# sky130_fd_pr__nfet_g5v0d10v5 ad=0.725 pd=5.29 as=0.725 ps=5.29 w=5 l=1
X110 a_n2738_n1610# a_n2938_n2808# a_n2996_n1610# a_n3130_n2942# sky130_fd_pr__nfet_g5v0d10v5 ad=0.725 pd=5.29 as=1.45 ps=10.58 w=5 l=1
X111 a_1648_610# a_1448_n2808# a_1390_610# a_n3130_n2942# sky130_fd_pr__nfet_g5v0d10v5 ad=0.725 pd=5.29 as=0.725 ps=5.29 w=5 l=1
X112 a_358_1720# a_158_n2808# a_100_1720# a_n3130_n2942# sky130_fd_pr__nfet_g5v0d10v5 ad=0.725 pd=5.29 as=0.725 ps=5.29 w=5 l=1
X113 a_n158_n1610# a_n358_n2808# a_n416_n1610# a_n3130_n2942# sky130_fd_pr__nfet_g5v0d10v5 ad=0.725 pd=5.29 as=0.725 ps=5.29 w=5 l=1
X114 a_2164_n1610# a_1964_n2808# a_1906_n1610# a_n3130_n2942# sky130_fd_pr__nfet_g5v0d10v5 ad=0.725 pd=5.29 as=0.725 ps=5.29 w=5 l=1
.ends

.subckt sky130_fd_pr__nfet_01v8_lvt_AJ3MPE a_72_772# a_n90_n750# a_n138_n838# a_n182_n750#
+ a_n284_n924# a_120_n750# a_28_n750#
X0 a_120_n750# a_72_772# a_28_n750# a_n284_n924# sky130_fd_pr__nfet_01v8_lvt ad=2.325 pd=15.62 as=2.325 ps=15.62 w=7.5 l=0.15
X1 a_n90_n750# a_n138_n838# a_n182_n750# a_n284_n924# sky130_fd_pr__nfet_01v8_lvt ad=2.325 pd=15.62 as=2.325 ps=15.62 w=7.5 l=0.15
.ends

.subckt sky130_fd_pr__pfet_01v8_lvt_UX3DP3 a_n1087_n4118# a_29_n4215# a_1029_118#
+ a_n29_n4118# a_29_21# a_n1029_21# w_n1225_n4337# a_n1087_118# a_1029_n4118# a_n1029_n4215#
+ a_n29_118#
X0 a_n29_n4118# a_n1029_n4215# a_n1087_n4118# w_n1225_n4337# sky130_fd_pr__pfet_01v8_lvt ad=2.9 pd=20.29 as=5.8 ps=40.58 w=20 l=5
X1 a_1029_n4118# a_29_n4215# a_n29_n4118# w_n1225_n4337# sky130_fd_pr__pfet_01v8_lvt ad=5.8 pd=40.58 as=2.9 ps=20.29 w=20 l=5
X2 a_1029_118# a_29_21# a_n29_118# w_n1225_n4337# sky130_fd_pr__pfet_01v8_lvt ad=5.8 pd=40.58 as=2.9 ps=20.29 w=20 l=5
X3 a_n29_118# a_n1029_21# a_n1087_118# w_n1225_n4337# sky130_fd_pr__pfet_01v8_lvt ad=2.9 pd=20.29 as=5.8 ps=40.58 w=20 l=5
.ends

.subckt sky130_fd_pr__pfet_g5v0d10v5_8UL4MK a_467_n1000# a_n803_n1000# w_n1559_n1297#
+ a_1301_n1000# a_n645_n1000# a_1143_n1000# a_189_n1000# a_n525_n1000# a_923_n1097#
+ a_1023_n1000# a_n1201_n1000# a_n367_n1000# a_n1359_n1000# a_n745_n1097# a_n89_n1000#
+ a_n247_n1000# a_645_n1097# a_865_n1000# a_n467_n1097# a_n1301_n1097# a_745_n1000#
+ a_n1081_n1000# a_367_n1097# a_89_n1097# a_587_n1000# a_309_n1000# a_31_n1000# a_n923_n1000#
+ a_1201_n1097# a_n189_n1097# a_n1023_n1097#
X0 a_n1201_n1000# a_n1301_n1097# a_n1359_n1000# w_n1559_n1297# sky130_fd_pr__pfet_g5v0d10v5 ad=2.9 pd=20.58 as=2.9 ps=20.58 w=10 l=0.5
X1 a_1301_n1000# a_1201_n1097# a_1143_n1000# w_n1559_n1297# sky130_fd_pr__pfet_g5v0d10v5 ad=2.9 pd=20.58 as=2.9 ps=20.58 w=10 l=0.5
X2 a_189_n1000# a_89_n1097# a_31_n1000# w_n1559_n1297# sky130_fd_pr__pfet_g5v0d10v5 ad=2.9 pd=20.58 as=2.9 ps=20.58 w=10 l=0.5
X3 a_n645_n1000# a_n745_n1097# a_n803_n1000# w_n1559_n1297# sky130_fd_pr__pfet_g5v0d10v5 ad=2.9 pd=20.58 as=2.9 ps=20.58 w=10 l=0.5
X4 a_745_n1000# a_645_n1097# a_587_n1000# w_n1559_n1297# sky130_fd_pr__pfet_g5v0d10v5 ad=2.9 pd=20.58 as=2.9 ps=20.58 w=10 l=0.5
X5 a_n89_n1000# a_n189_n1097# a_n247_n1000# w_n1559_n1297# sky130_fd_pr__pfet_g5v0d10v5 ad=2.9 pd=20.58 as=2.9 ps=20.58 w=10 l=0.5
X6 a_n923_n1000# a_n1023_n1097# a_n1081_n1000# w_n1559_n1297# sky130_fd_pr__pfet_g5v0d10v5 ad=2.9 pd=20.58 as=2.9 ps=20.58 w=10 l=0.5
X7 a_1023_n1000# a_923_n1097# a_865_n1000# w_n1559_n1297# sky130_fd_pr__pfet_g5v0d10v5 ad=2.9 pd=20.58 as=2.9 ps=20.58 w=10 l=0.5
X8 a_n367_n1000# a_n467_n1097# a_n525_n1000# w_n1559_n1297# sky130_fd_pr__pfet_g5v0d10v5 ad=2.9 pd=20.58 as=2.9 ps=20.58 w=10 l=0.5
X9 a_467_n1000# a_367_n1097# a_309_n1000# w_n1559_n1297# sky130_fd_pr__pfet_g5v0d10v5 ad=2.9 pd=20.58 as=2.9 ps=20.58 w=10 l=0.5
.ends

.subckt sky130_fd_pr__cap_mim_m3_1_BHK9HY c1_n3758_n5640# c1_1466_n5640# m3_1426_n5680#
+ m3_n1186_n5680# m3_n3798_n5680# c1_n1146_n5640#
X0 c1_n3758_n5640# m3_n3798_n5680# sky130_fd_pr__cap_mim_m3_1 l=10 w=10
X1 c1_n1146_n5640# m3_n1186_n5680# sky130_fd_pr__cap_mim_m3_1 l=10 w=10
X2 c1_1466_n5640# m3_1426_n5680# sky130_fd_pr__cap_mim_m3_1 l=10 w=10
X3 c1_n3758_n5640# m3_n3798_n5680# sky130_fd_pr__cap_mim_m3_1 l=10 w=10
X4 c1_1466_n5640# m3_1426_n5680# sky130_fd_pr__cap_mim_m3_1 l=10 w=10
X5 c1_n3758_n5640# m3_n3798_n5680# sky130_fd_pr__cap_mim_m3_1 l=10 w=10
X6 c1_n1146_n5640# m3_n1186_n5680# sky130_fd_pr__cap_mim_m3_1 l=10 w=10
X7 c1_n3758_n5640# m3_n3798_n5680# sky130_fd_pr__cap_mim_m3_1 l=10 w=10
X8 c1_n1146_n5640# m3_n1186_n5680# sky130_fd_pr__cap_mim_m3_1 l=10 w=10
X9 c1_1466_n5640# m3_1426_n5680# sky130_fd_pr__cap_mim_m3_1 l=10 w=10